@<TRIPOS>MOLECULE
UD2
 46 48 0 0 0
SMALL
GASTEIGER

@<TRIPOS>ATOM
      1 P          21.3872   70.7450   -2.5780 P.3     1  UNL1        0.2189
      2 O          20.9388   69.2172   -2.8151 O.3     1  UNL1       -0.4371
      3 O          21.8409   71.3310   -3.8584 O.2     1  UNL1       -0.5170
      4 O          20.1372   71.5896   -2.0141 O.3     1  UNL1       -0.3112
      5 C          19.6420   72.7666   -2.6552 C.3     1  UNL1        0.1811
      6 C          17.6550   71.5131   -5.3787 C.3     1  UNL1        0.2383
      7 C          17.8000   70.3079   -4.4151 C.3     1  UNL1        0.1895
      8 O          16.6526   69.4591   -4.4838 O.3     1  UNL1       -0.3779
      9 C          17.8905   71.0039   -3.0350 C.3     1  UNL1        0.1713
     10 C          18.3260   72.4438   -3.3672 C.3     1  UNL1        0.1764
     11 O          18.5092   72.5179   -4.7901 O.3     1  UNL1       -0.3308
     12 O          16.6152   71.0026   -2.3911 O.3     1  UNL1       -0.3794
     13 H          16.6963   68.6903   -3.8992 H       1  UNL1        0.2106
     14 H          16.2654   70.1196   -2.2114 H       1  UNL1        0.2105
     15 N          18.1227   71.1597   -6.7208 N.ar    1  UNL1       -0.2551
     16 C          17.2431   70.7220   -7.6393 C.ar    1  UNL1        0.3323
     17 N          17.6450   70.3900   -8.8804 N.ar    1  UNL1       -0.2743
     18 C          18.9450   70.4941   -9.2235 C.ar    1  UNL1        0.2626
     19 C          19.8817   70.9544   -8.2669 C.ar    1  UNL1        0.0795
     20 C          19.4502   71.2843   -7.0314 C.ar    1  UNL1        0.0869
     21 O          16.0678   70.6234   -7.3440 O.2     1  UNL1       -0.2464
     22 O          19.3100   70.1943  -10.3466 O.2     1  UNL1       -0.2670
     23 H          16.9979   70.0750   -9.5302 H       1  UNL1        0.1734
     24 O          22.5911   70.7916   -1.5095 O.3     1  UNL1       -0.2703
     25 P          22.7085   70.4432    0.0583 P.3     1  UNL1        0.2208
     26 O          21.4567   69.5312    0.5000 O.3     1  UNL1       -0.4371
     27 O          23.9669   69.7065    0.3073 O.2     1  UNL1       -0.5170
     28 O          22.7069   71.8079    0.9128 O.3     1  UNL1       -0.2865
     29 C          21.5112   72.5130    1.2512 C.3     1  UNL1        0.2611
     30 C          21.6274   73.9675    0.7891 C.3     1  UNL1        0.1582
     31 C          22.7884   74.6383    1.5297 C.3     1  UNL1        0.1625
     32 C          22.5507   74.5257    3.0381 C.3     1  UNL1        0.1686
     33 C          22.3990   73.0493    3.4136 C.3     1  UNL1        0.1760
     34 O          22.8580   76.0170    1.1588 O.3     1  UNL1       -0.3801
     35 O          21.3596   75.2329    3.3880 O.3     1  UNL1       -0.3794
     36 O          21.3226   72.4778    2.6674 O.3     1  UNL1       -0.3263
     37 H          23.5729   76.5045    1.5906 H       1  UNL1        0.2105
     38 H          21.1465   75.2032    4.3313 H       1  UNL1        0.2105
     39 C          23.1438   74.0948   -1.1141 C.2     1  UNL1        0.2231
     40 C          23.4049   74.1320   -2.5970 C.3     1  UNL1        0.0946
     41 N          21.8806   74.0039   -0.6535 N.am    1  UNL1       -0.2994
     42 O          24.0710   74.1468   -0.3332 O.2     1  UNL1       -0.2751
     43 H          21.1389   73.9633   -1.2774 H       1  UNL1        0.1496
     44 C          22.1018   72.9317    4.9097 C.3     1  UNL1        0.1693
     45 O          20.6937   73.0443    5.1266 O.3     1  UNL1       -0.3794
     46 H          20.4318   72.9787    6.0551 H       1  UNL1        0.2105
@<TRIPOS>BOND
     1    29    30    1
     2    30    41    1
     3    30    31    1
     4    31    34    1
     5    31    32    1
     6    32    35    1
     7    32    33    1
     8    33    36    1
     9    33    44    1
    10    39    40    1
    11    39    42    2
    12    39    41   am
    13    41    43    1
    14    29    28    1
    15    34    37    1
    16    35    38    1
    17    29    36    1
    18    44    45    1
    19    45    46    1
    20    15     6    1
    21    15    16   ar
    22    16    21    2
    23    16    17   ar
    24    17    23    1
    25    17    18   ar
    26    18    19   ar
    27    19    20   ar
    28    15    20   ar
    29    18    22    2
    30     6     7    1
    31     6    11    1
    32     7     9    1
    33     7     8    1
    34     8    13    1
    35     9    10    1
    36     9    12    1
    37    10     5    1
    38    10    11    1
    39    12    14    1
    40     5     4    1
    41     4     1    1
    42     1     2    1
    43     1    24    1
    44     1     3    2
    45    24    25    1
    46    28    25    1
    47    25    26    1
    48    25    27    2
@<TRIPOS>MOLECULE
UD2
 46 48 0 0 0
SMALL
GASTEIGER

@<TRIPOS>ATOM
      1 P          21.7192   70.6717   -0.1339 P.3     1  UNL1        0.2189
      2 O          21.9888   69.2538    0.5790 O.3     1  UNL1       -0.4371
      3 O          23.0066   71.2626   -0.5606 O.2     1  UNL1       -0.5170
      4 O          20.7756   70.4543   -1.4208 O.3     1  UNL1       -0.3112
      5 C          20.8086   71.3127   -2.5625 C.3     1  UNL1        0.1811
      6 C          18.2851   71.1303   -5.1190 C.3     1  UNL1        0.2383
      7 C          18.1759   69.7797   -4.3666 C.3     1  UNL1        0.1895
      8 O          16.8333   69.2912   -4.3875 O.3     1  UNL1       -0.3779
      9 C          18.5984   70.1727   -2.9297 C.3     1  UNL1        0.1713
     10 C          19.3909   71.4808   -3.1148 C.3     1  UNL1        0.1764
     11 O          19.4446   71.7528   -4.5243 O.3     1  UNL1       -0.3308
     12 O          17.4466   70.3963   -2.1147 O.3     1  UNL1       -0.3794
     13 H          16.7141   68.4480   -3.9300 H       1  UNL1        0.2106
     14 H          16.8793   69.6203   -2.0128 H       1  UNL1        0.2105
     15 N          18.4962   70.9073   -6.5510 N.ar    1  UNL1       -0.2551
     16 C          17.4363   70.7715   -7.3677 C.ar    1  UNL1        0.3323
     17 N          17.6007   70.5656   -8.6878 N.ar    1  UNL1       -0.2743
     18 C          18.8402   70.4938   -9.2143 C.ar    1  UNL1        0.2626
     19 C          19.9649   70.6360   -8.3665 C.ar    1  UNL1        0.0795
     20 C          19.7705   70.8459   -7.0475 C.ar    1  UNL1        0.0869
     21 O          16.3129   70.8343   -6.9068 O.2     1  UNL1       -0.2464
     22 O          18.9904   70.3079  -10.4091 O.2     1  UNL1       -0.2670
     23 H          16.8257   70.4686   -9.2623 H       1  UNL1        0.1734
     24 O          20.9902   71.6644    0.9036 O.3     1  UNL1       -0.2703
     25 P          21.5050   72.8425    1.8731 P.3     1  UNL1        0.2208
     26 O          22.7656   73.5816    1.1962 O.3     1  UNL1       -0.4371
     27 O          20.4151   73.8204    2.0832 O.2     1  UNL1       -0.5170
     28 O          21.9462   72.2173    3.2898 O.3     1  UNL1       -0.2865
     29 C          22.2677   73.0186    4.4281 C.3     1  UNL1        0.2611
     30 C          21.1765   74.0713    4.6370 C.3     1  UNL1        0.1582
     31 C          21.1299   74.9951    3.4160 C.3     1  UNL1        0.1625
     32 C          22.5111   75.6235    3.2117 C.3     1  UNL1        0.1686
     33 C          23.5512   74.5107    3.0577 C.3     1  UNL1        0.1760
     34 O          20.1638   76.0258    3.6340 O.3     1  UNL1       -0.3801
     35 O          22.8400   76.4322    4.3427 O.3     1  UNL1       -0.3794
     36 O          23.5214   73.6699    4.2128 O.3     1  UNL1       -0.3263
     37 H          20.0807   76.6484    2.8986 H       1  UNL1        0.2105
     38 H          23.7046   76.8619    4.2817 H       1  UNL1        0.2105
     39 C          19.0076   73.8490    5.7251 C.2     1  UNL1        0.2231
     40 C          17.6750   73.1670    5.8915 C.3     1  UNL1        0.0946
     41 N          19.8805   73.4073    4.7983 N.am    1  UNL1       -0.2994
     42 O          19.2959   74.7966    6.4259 O.2     1  UNL1       -0.2751
     43 H          19.6508   72.6491    4.2385 H       1  UNL1        0.1496
     44 C          24.9426   75.1298    2.9128 C.3     1  UNL1        0.1693
     45 O          25.2244   75.3519    1.5295 O.3     1  UNL1       -0.3794
     46 H          26.0925   75.7436    1.3623 H       1  UNL1        0.2105
@<TRIPOS>BOND
     1    29    30    1
     2    30    41    1
     3    30    31    1
     4    31    34    1
     5    31    32    1
     6    32    35    1
     7    32    33    1
     8    33    36    1
     9    33    44    1
    10    39    40    1
    11    39    42    2
    12    39    41   am
    13    41    43    1
    14    29    28    1
    15    34    37    1
    16    35    38    1
    17    29    36    1
    18    44    45    1
    19    45    46    1
    20    15     6    1
    21    15    16   ar
    22    16    21    2
    23    16    17   ar
    24    17    23    1
    25    17    18   ar
    26    18    19   ar
    27    19    20   ar
    28    15    20   ar
    29    18    22    2
    30     6     7    1
    31     6    11    1
    32     7     9    1
    33     7     8    1
    34     8    13    1
    35     9    10    1
    36     9    12    1
    37    10     5    1
    38    10    11    1
    39    12    14    1
    40     5     4    1
    41     4     1    1
    42     1     2    1
    43     1    24    1
    44     1     3    2
    45    24    25    1
    46    28    25    1
    47    25    26    1
    48    25    27    2
@<TRIPOS>MOLECULE
UD2
 46 48 0 0 0
SMALL
GASTEIGER

@<TRIPOS>ATOM
      1 P          22.8719   72.0590   -3.3580 P.3     1  UNL1        0.2189
      2 O          23.4554   70.5606   -3.2811 O.3     1  UNL1       -0.4371
      3 O          23.5640   72.8040   -4.4326 O.2     1  UNL1       -0.5170
      4 O          21.2935   72.0045   -3.6733 O.3     1  UNL1       -0.3112
      5 C          20.2942   72.0966   -2.6562 C.3     1  UNL1        0.1811
      6 C          17.9979   71.3336   -5.3173 C.3     1  UNL1        0.2383
      7 C          18.0406   70.0446   -4.4579 C.3     1  UNL1        0.1895
      8 O          16.7891   69.3568   -4.5076 O.3     1  UNL1       -0.3779
      9 C          18.3055   70.6076   -3.0400 C.3     1  UNL1        0.1713
     10 C          18.9065   72.0031   -3.2952 C.3     1  UNL1        0.1764
     11 O          19.0113   72.1700   -4.7181 O.3     1  UNL1       -0.3308
     12 O          17.0826   70.7152   -2.3095 O.3     1  UNL1       -0.3794
     13 H          16.7662   68.5432   -3.9858 H       1  UNL1        0.2106
     14 H          16.6307   69.8719   -2.1711 H       1  UNL1        0.2105
     15 N          18.3328   71.0353   -6.7116 N.ar    1  UNL1       -0.2551
     16 C          17.3495   70.7816   -7.5934 C.ar    1  UNL1        0.3323
     17 N          17.6282   70.5043   -8.8809 N.ar    1  UNL1       -0.2743
     18 C          18.9070   70.4785   -9.3083 C.ar    1  UNL1        0.2626
     19 C          19.9519   70.7447   -8.3910 C.ar    1  UNL1        0.0795
     20 C          19.6433   71.0240   -7.1071 C.ar    1  UNL1        0.0869
     21 O          16.1919   70.8016   -7.2222 O.2     1  UNL1       -0.2464
     22 O          19.1606   70.2281  -10.4734 O.2     1  UNL1       -0.2670
     23 H          16.9073   70.3225   -9.5033 H       1  UNL1        0.1734
     24 O          23.1117   72.8016   -1.9493 O.3     1  UNL1       -0.2703
     25 P          23.2432   74.3443   -1.5070 P.3     1  UNL1        0.2208
     26 O          24.7026   74.8946   -1.9083 O.3     1  UNL1       -0.4371
     27 O          22.2080   75.1453   -2.1962 O.2     1  UNL1       -0.5170
     28 O          23.0432   74.4646    0.0861 O.3     1  UNL1       -0.2865
     29 C          21.7844   74.2604    0.7303 C.3     1  UNL1        0.2611
     30 C          21.9523   74.4209    2.2432 C.3     1  UNL1        0.1582
     31 C          22.9175   73.3484    2.7577 C.3     1  UNL1        0.1625
     32 C          22.3785   71.9668    2.3768 C.3     1  UNL1        0.1686
     33 C          22.1942   71.9009    0.8583 C.3     1  UNL1        0.1760
     34 O          23.0232   73.4443    4.1799 O.3     1  UNL1       -0.3801
     35 O          21.1217   71.7501    3.0208 O.3     1  UNL1       -0.3794
     36 O          21.3102   72.9435    0.4417 O.3     1  UNL1       -0.3263
     37 H          23.6204   72.7939    4.5743 H       1  UNL1        0.2105
     38 H          20.7205   70.8922    2.8233 H       1  UNL1        0.2105
     39 C          21.7997   76.6055    3.3117 C.2     1  UNL1        0.2231
     40 C          22.3570   77.9716    3.6145 C.3     1  UNL1        0.0946
     41 N          22.4950   75.7496    2.5370 N.am    1  UNL1       -0.2994
     42 O          20.7240   76.2749    3.7653 O.2     1  UNL1       -0.2751
     43 H          23.3546   76.0139    2.1734 H       1  UNL1        0.1496
     44 C          21.5997   70.5443    0.4753 C.3     1  UNL1        0.1693
     45 O          22.4046   69.4987    1.0240 O.3     1  UNL1       -0.3794
     46 H          22.0863   68.6086    0.8205 H       1  UNL1        0.2105
@<TRIPOS>BOND
     1    29    30    1
     2    30    41    1
     3    30    31    1
     4    31    34    1
     5    31    32    1
     6    32    35    1
     7    32    33    1
     8    33    36    1
     9    33    44    1
    10    39    40    1
    11    39    42    2
    12    39    41   am
    13    41    43    1
    14    29    28    1
    15    34    37    1
    16    35    38    1
    17    29    36    1
    18    44    45    1
    19    45    46    1
    20    15     6    1
    21    15    16   ar
    22    16    21    2
    23    16    17   ar
    24    17    23    1
    25    17    18   ar
    26    18    19   ar
    27    19    20   ar
    28    15    20   ar
    29    18    22    2
    30     6     7    1
    31     6    11    1
    32     7     9    1
    33     7     8    1
    34     8    13    1
    35     9    10    1
    36     9    12    1
    37    10     5    1
    38    10    11    1
    39    12    14    1
    40     5     4    1
    41     4     1    1
    42     1     2    1
    43     1    24    1
    44     1     3    2
    45    24    25    1
    46    28    25    1
    47    25    26    1
    48    25    27    2
@<TRIPOS>MOLECULE
UD2
 46 48 0 0 0
SMALL
GASTEIGER

@<TRIPOS>ATOM
      1 P          21.9423   73.9953   -6.2083 P.3     1  UNL1        0.2189
      2 O          23.1677   75.0391   -6.1946 O.3     1  UNL1       -0.4371
      3 O          20.6656   74.7338   -6.3246 O.2     1  UNL1       -0.5170
      4 O          22.1015   72.9976   -7.4626 O.3     1  UNL1       -0.3112
      5 C          21.4921   73.2414   -8.7317 C.3     1  UNL1        0.1811
      6 C          18.8162   71.1277   -7.5879 C.3     1  UNL1        0.2383
      7 C          18.1491   72.5062   -7.8267 C.3     1  UNL1        0.1895
      8 O          16.7841   72.3510   -8.2198 O.3     1  UNL1       -0.3779
      9 C          18.9966   73.0808   -8.9882 C.3     1  UNL1        0.1713
     10 C          20.3135   72.2838   -8.9235 C.3     1  UNL1        0.1764
     11 O          20.2197   71.3929   -7.8006 O.3     1  UNL1       -0.3308
     12 O          18.3411   72.8640  -10.2388 O.3     1  UNL1       -0.3794
     13 H          16.3235   73.1857   -8.3803 H       1  UNL1        0.2106
     14 H          17.4789   73.2950  -10.3117 H       1  UNL1        0.2105
     15 N          18.5791   70.6705   -6.2168 N.ar    1  UNL1       -0.2551
     16 C          17.4170   70.0689   -5.9065 C.ar    1  UNL1        0.3323
     17 N          17.1721   69.6389   -4.6546 N.ar    1  UNL1       -0.2743
     18 C          18.0965   69.8050   -3.6869 C.ar    1  UNL1        0.2626
     19 C          19.3247   70.4358   -3.9998 C.ar    1  UNL1        0.0795
     20 C          19.5451   70.8532   -5.2642 C.ar    1  UNL1        0.0869
     21 O          16.5744   69.9123   -6.7690 O.2     1  UNL1       -0.2464
     22 O          17.8763   69.4159   -2.5535 O.2     1  UNL1       -0.2670
     23 H          16.3284   69.2082   -4.4477 H       1  UNL1        0.1734
     24 O          21.9473   73.1433   -4.8418 O.3     1  UNL1       -0.2703
     25 P          23.0521   72.8602   -3.7050 P.3     1  UNL1        0.2208
     26 O          23.3705   71.2825   -3.6478 O.3     1  UNL1       -0.4371
     27 O          24.2914   73.6016   -4.0256 O.2     1  UNL1       -0.5170
     28 O          22.4894   73.3466   -2.2770 O.3     1  UNL1       -0.2865
     29 C          21.3192   72.7934   -1.6719 C.3     1  UNL1        0.2611
     30 C          20.8130   73.7387   -0.5797 C.3     1  UNL1        0.1582
     31 C          21.8831   73.8669    0.5088 C.3     1  UNL1        0.1625
     32 C          22.2118   72.4740    1.0531 C.3     1  UNL1        0.1686
     33 C          22.6643   71.5774   -0.1024 C.3     1  UNL1        0.1760
     34 O          21.3897   74.6896    1.5685 O.3     1  UNL1       -0.3801
     35 O          21.0490   71.9140    1.6658 O.3     1  UNL1       -0.3794
     36 O          21.6365   71.5256   -1.0937 O.3     1  UNL1       -0.3263
     37 H          22.0173   74.8147    2.2936 H       1  UNL1        0.2105
     38 H          21.1845   71.0292    2.0330 H       1  UNL1        0.2105
     39 C          19.2731   75.4740   -1.3248 C.2     1  UNL1        0.2231
     40 C          18.9957   76.8292   -1.9206 C.3     1  UNL1        0.0946
     41 N          20.5439   75.0569   -1.1595 N.am    1  UNL1       -0.2994
     42 O          18.3523   74.7568   -0.9934 O.2     1  UNL1       -0.2751
     43 H          21.2804   75.6296   -1.4253 H       1  UNL1        0.1496
     44 C          22.9376   70.1670    0.4236 C.3     1  UNL1        0.1693
     45 O          21.7052   69.4518    0.5336 O.3     1  UNL1       -0.3794
     46 H          21.8025   68.5475    0.8620 H       1  UNL1        0.2105
@<TRIPOS>BOND
     1    29    30    1
     2    30    41    1
     3    30    31    1
     4    31    34    1
     5    31    32    1
     6    32    35    1
     7    32    33    1
     8    33    36    1
     9    33    44    1
    10    39    40    1
    11    39    42    2
    12    39    41   am
    13    41    43    1
    14    29    28    1
    15    34    37    1
    16    35    38    1
    17    29    36    1
    18    44    45    1
    19    45    46    1
    20    15     6    1
    21    15    16   ar
    22    16    21    2
    23    16    17   ar
    24    17    23    1
    25    17    18   ar
    26    18    19   ar
    27    19    20   ar
    28    15    20   ar
    29    18    22    2
    30     6     7    1
    31     6    11    1
    32     7     9    1
    33     7     8    1
    34     8    13    1
    35     9    10    1
    36     9    12    1
    37    10     5    1
    38    10    11    1
    39    12    14    1
    40     5     4    1
    41     4     1    1
    42     1     2    1
    43     1    24    1
    44     1     3    2
    45    24    25    1
    46    28    25    1
    47    25    26    1
    48    25    27    2
@<TRIPOS>MOLECULE
UD2
 46 48 0 0 0
SMALL
GASTEIGER

@<TRIPOS>ATOM
      1 P          21.8763   70.7945   -0.4605 P.3     1  UNL1        0.2189
      2 O          21.5853   69.6800    0.6640 O.3     1  UNL1       -0.4371
      3 O          23.0375   70.3799   -1.2781 O.2     1  UNL1       -0.5170
      4 O          20.5826   70.9524   -1.4067 O.3     1  UNL1       -0.3112
      5 C          20.6214   71.6150   -2.6720 C.3     1  UNL1        0.1811
      6 C          18.1752   71.1977   -5.2755 C.3     1  UNL1        0.2383
      7 C          18.1355   69.8645   -4.4862 C.3     1  UNL1        0.1895
      8 O          16.8278   69.2896   -4.5216 O.3     1  UNL1       -0.3779
      9 C          18.4982   70.3242   -3.0528 C.3     1  UNL1        0.1713
     10 C          19.2092   71.6753   -3.2593 C.3     1  UNL1        0.1764
     11 O          19.2781   71.9106   -4.6747 O.3     1  UNL1       -0.3308
     12 O          17.3158   70.4953   -2.2696 O.3     1  UNL1       -0.3794
     13 H          16.7524   68.4535   -4.0420 H       1  UNL1        0.2106
     14 H          16.7972   69.6873   -2.1571 H       1  UNL1        0.2105
     15 N          18.4335   70.9490   -6.6955 N.ar    1  UNL1       -0.2551
     16 C          17.4013   70.7820   -7.5414 C.ar    1  UNL1        0.3323
     17 N          17.6093   70.5518   -8.8513 N.ar    1  UNL1       -0.2743
     18 C          18.8653   70.4867   -9.3380 C.ar    1  UNL1        0.2626
     19 C          19.9612   70.6616   -8.4591 C.ar    1  UNL1        0.0795
     20 C          19.7233   70.8953   -7.1513 C.ar    1  UNL1        0.0869
     21 O          16.2634   70.8383   -7.1165 O.2     1  UNL1       -0.2464
     22 O          19.0548   70.2788  -10.5234 O.2     1  UNL1       -0.2670
     23 H          16.8537   70.4325   -9.4472 H       1  UNL1        0.1734
     24 O          22.1956   72.2038    0.2502 O.3     1  UNL1       -0.2703
     25 P          21.6377   72.9434    1.5673 P.3     1  UNL1        0.2208
     26 O          20.6116   74.1070    1.1348 O.3     1  UNL1       -0.4371
     27 O          20.9372   71.9625    2.4248 O.2     1  UNL1       -0.5170
     28 O          22.8678   73.5877    2.3825 O.3     1  UNL1       -0.2865
     29 C          22.8473   74.9202    2.8977 C.3     1  UNL1        0.2611
     30 C          24.2561   75.3165    3.3461 C.3     1  UNL1        0.1582
     31 C          24.7026   74.3867    4.4786 C.3     1  UNL1        0.1625
     32 C          23.6861   74.4663    5.6208 C.3     1  UNL1        0.1686
     33 C          22.2990   74.1025    5.0846 C.3     1  UNL1        0.1760
     34 O          25.9874   74.7958    4.9533 O.3     1  UNL1       -0.3801
     35 O          23.6621   75.7943    6.1472 O.3     1  UNL1       -0.3794
     36 O          21.9574   74.9852    4.0140 O.3     1  UNL1       -0.3263
     37 H          26.3329   74.2492    5.6723 H       1  UNL1        0.2105
     38 H          23.0377   75.9181    6.8758 H       1  UNL1        0.2105
     39 C          26.1311   76.1285    2.0184 C.2     1  UNL1        0.2231
     40 C          27.0833   76.0020    0.8582 C.3     1  UNL1        0.0946
     41 N          25.1818   75.1929    2.2172 N.am    1  UNL1       -0.2994
     42 O          26.2183   77.0733    2.7747 O.2     1  UNL1       -0.2751
     43 H          25.1111   74.4379    1.6122 H       1  UNL1        0.1496
     44 C          21.2674   74.2375    6.2062 C.3     1  UNL1        0.1693
     45 O          20.1616   73.3708    5.9442 O.3     1  UNL1       -0.3794
     46 H          19.4671   73.4044    6.6162 H       1  UNL1        0.2105
@<TRIPOS>BOND
     1    29    30    1
     2    30    41    1
     3    30    31    1
     4    31    34    1
     5    31    32    1
     6    32    35    1
     7    32    33    1
     8    33    36    1
     9    33    44    1
    10    39    40    1
    11    39    42    2
    12    39    41   am
    13    41    43    1
    14    29    28    1
    15    34    37    1
    16    35    38    1
    17    29    36    1
    18    44    45    1
    19    45    46    1
    20    15     6    1
    21    15    16   ar
    22    16    21    2
    23    16    17   ar
    24    17    23    1
    25    17    18   ar
    26    18    19   ar
    27    19    20   ar
    28    15    20   ar
    29    18    22    2
    30     6     7    1
    31     6    11    1
    32     7     9    1
    33     7     8    1
    34     8    13    1
    35     9    10    1
    36     9    12    1
    37    10     5    1
    38    10    11    1
    39    12    14    1
    40     5     4    1
    41     4     1    1
    42     1     2    1
    43     1    24    1
    44     1     3    2
    45    24    25    1
    46    28    25    1
    47    25    26    1
    48    25    27    2
@<TRIPOS>MOLECULE
UD2
 46 48 0 0 0
SMALL
GASTEIGER

@<TRIPOS>ATOM
      1 P          22.8682   72.2290   -3.2523 P.3     1  UNL1        0.2189
      2 O          23.3915   70.7078   -3.1932 O.3     1  UNL1       -0.4371
      3 O          23.5932   72.9599   -4.3148 O.2     1  UNL1       -0.5170
      4 O          21.2900   72.2414   -3.5733 O.3     1  UNL1       -0.3112
      5 C          20.2922   72.0165   -2.5757 C.3     1  UNL1        0.1811
      6 C          18.0066   71.3682   -5.2761 C.3     1  UNL1        0.2383
      7 C          17.9880   70.0700   -4.4296 C.3     1  UNL1        0.1895
      8 O          16.7122   69.4310   -4.5038 O.3     1  UNL1       -0.3779
      9 C          18.2540   70.6084   -3.0025 C.3     1  UNL1        0.1713
     10 C          18.9111   71.9824   -3.2347 C.3     1  UNL1        0.1764
     11 O          19.0425   72.1593   -4.6542 O.3     1  UNL1       -0.3308
     12 O          17.0258   70.7553   -2.2878 O.3     1  UNL1       -0.3794
     13 H          16.6509   68.6137   -3.9910 H       1  UNL1        0.2106
     14 H          16.5403   69.9285   -2.1645 H       1  UNL1        0.2105
     15 N          18.3496   71.0712   -6.6686 N.ar    1  UNL1       -0.2551
     16 C          17.3712   70.8253   -7.5580 C.ar    1  UNL1        0.3323
     17 N          17.6574   70.5493   -8.8442 N.ar    1  UNL1       -0.2743
     18 C          18.9390   70.5171   -9.2625 C.ar    1  UNL1        0.2626
     19 C          19.9789   70.7751   -8.3371 C.ar    1  UNL1        0.0795
     20 C          19.6628   71.0532   -7.0549 C.ar    1  UNL1        0.0869
     21 O          16.2111   70.8512   -7.1950 O.2     1  UNL1       -0.2464
     22 O          19.1994   70.2679  -10.4263 O.2     1  UNL1       -0.2670
     23 H          16.9399   70.3732   -9.4721 H       1  UNL1        0.1734
     24 O          23.1320   72.9432   -1.8332 O.3     1  UNL1       -0.2703
     25 P          23.0246   74.4619   -1.3090 P.3     1  UNL1        0.2208
     26 O          24.4470   75.1946   -1.4933 O.3     1  UNL1       -0.4371
     27 O          21.9948   75.1819   -2.0897 O.2     1  UNL1       -0.5170
     28 O          22.6171   74.4644    0.2487 O.3     1  UNL1       -0.2865
     29 C          23.3709   73.7807    1.2516 C.3     1  UNL1        0.2611
     30 C          22.5112   72.6782    1.8745 C.3     1  UNL1        0.1582
     31 C          21.2969   73.3143    2.5581 C.3     1  UNL1        0.1625
     32 C          21.7828   74.3284    3.5974 C.3     1  UNL1        0.1686
     33 C          22.6707   75.3676    2.9078 C.3     1  UNL1        0.1760
     34 O          20.5272   72.2986    3.2054 O.3     1  UNL1       -0.3801
     35 O          22.5333   73.6536    4.6086 O.3     1  UNL1       -0.3794
     36 O          23.7636   74.7075    2.2661 O.3     1  UNL1       -0.3263
     37 H          19.7406   72.6310    3.6593 H       1  UNL1        0.2105
     38 H          22.8738   74.2366    5.3016 H       1  UNL1        0.2105
     39 C          22.4647   70.4755    0.8334 C.2     1  UNL1        0.2231
     40 C          21.9990   69.5311   -0.2436 C.3     1  UNL1        0.0946
     41 N          22.0579   71.7603    0.8264 N.am    1  UNL1       -0.2994
     42 O          23.2067   70.0798    1.7081 O.2     1  UNL1       -0.2751
     43 H          21.4655   72.0773    0.1267 H       1  UNL1        0.1496
     44 C          23.2087   76.3502    3.9498 C.3     1  UNL1        0.1693
     45 O          24.4297   75.8460    4.4952 O.3     1  UNL1       -0.3794
     46 H          24.8284   76.4191    5.1643 H       1  UNL1        0.2105
@<TRIPOS>BOND
     1    29    30    1
     2    30    41    1
     3    30    31    1
     4    31    34    1
     5    31    32    1
     6    32    35    1
     7    32    33    1
     8    33    36    1
     9    33    44    1
    10    39    40    1
    11    39    42    2
    12    39    41   am
    13    41    43    1
    14    29    28    1
    15    34    37    1
    16    35    38    1
    17    29    36    1
    18    44    45    1
    19    45    46    1
    20    15     6    1
    21    15    16   ar
    22    16    21    2
    23    16    17   ar
    24    17    23    1
    25    17    18   ar
    26    18    19   ar
    27    19    20   ar
    28    15    20   ar
    29    18    22    2
    30     6     7    1
    31     6    11    1
    32     7     9    1
    33     7     8    1
    34     8    13    1
    35     9    10    1
    36     9    12    1
    37    10     5    1
    38    10    11    1
    39    12    14    1
    40     5     4    1
    41     4     1    1
    42     1     2    1
    43     1    24    1
    44     1     3    2
    45    24    25    1
    46    28    25    1
    47    25    26    1
    48    25    27    2
@<TRIPOS>MOLECULE
UD2
 46 48 0 0 0
SMALL
GASTEIGER

@<TRIPOS>ATOM
      1 P          21.7733   70.5607   -0.2085 P.3     1  UNL1        0.2189
      2 O          22.0925   69.1010    0.3903 O.3     1  UNL1       -0.4371
      3 O          23.0133   71.1505   -0.7595 O.2     1  UNL1       -0.5170
      4 O          20.6742   70.4320   -1.3786 O.3     1  UNL1       -0.3112
      5 C          20.7973   71.0971   -2.6371 C.3     1  UNL1        0.1811
      6 C          18.2927   71.1266   -5.2183 C.3     1  UNL1        0.2383
      7 C          18.0676   69.7869   -4.4722 C.3     1  UNL1        0.1895
      8 O          16.6903   69.4083   -4.5079 O.3     1  UNL1       -0.3779
      9 C          18.5062   70.1401   -3.0299 C.3     1  UNL1        0.1713
     10 C          19.4034   71.3807   -3.2023 C.3     1  UNL1        0.1764
     11 O          19.4926   71.6518   -4.6101 O.3     1  UNL1       -0.3308
     12 O          17.3683   70.4532   -2.2250 O.3     1  UNL1       -0.3794
     13 H          16.4990   68.5760   -4.0548 H       1  UNL1        0.2106
     14 H          16.7393   69.7252   -2.1316 H       1  UNL1        0.2105
     15 N          18.4992   70.8919   -6.6491 N.ar    1  UNL1       -0.2551
     16 C          17.4372   70.7958   -7.4687 C.ar    1  UNL1        0.3323
     17 N          17.5974   70.5801   -8.7879 N.ar    1  UNL1       -0.2743
     18 C          18.8347   70.4584   -9.3103 C.ar    1  UNL1        0.2626
     19 C          19.9615   70.5585   -8.4593 C.ar    1  UNL1        0.0795
     20 C          19.7716   70.7792   -7.1414 C.ar    1  UNL1        0.0869
     21 O          16.3158   70.9037   -7.0115 O.2     1  UNL1       -0.2464
     22 O          18.9811   70.2636  -10.5041 O.2     1  UNL1       -0.2670
     23 H          16.8209   70.5122   -9.3645 H       1  UNL1        0.1734
     24 O          21.2019   71.5081    0.9617 O.3     1  UNL1       -0.2703
     25 P          21.8881   72.3911    2.1202 P.3     1  UNL1        0.2208
     26 O          22.8593   71.4570    3.0022 O.3     1  UNL1       -0.4371
     27 O          22.6771   73.4821    1.5074 O.2     1  UNL1       -0.5170
     28 O          20.7449   73.0196    3.0640 O.3     1  UNL1       -0.2865
     29 C          20.7135   74.3989    3.4355 C.3     1  UNL1        0.2611
     30 C          21.5011   74.5969    4.7329 C.3     1  UNL1        0.1582
     31 C          20.8303   73.7978    5.8544 C.3     1  UNL1        0.1625
     32 C          19.3727   74.2477    5.9858 C.3     1  UNL1        0.1686
     33 C          18.6669   74.0630    4.6398 C.3     1  UNL1        0.1760
     34 O          21.5163   74.0353    7.0857 O.3     1  UNL1       -0.3801
     35 O          19.3302   75.6251    6.3629 O.3     1  UNL1       -0.3794
     36 O          19.3586   74.8073    3.6350 O.3     1  UNL1       -0.3263
     37 H          21.1447   73.5588    7.8408 H       1  UNL1        0.2105
     38 H          18.4352   75.9785    6.4639 H       1  UNL1        0.2105
     39 C          23.9101   74.9635    4.7450 C.2     1  UNL1        0.2231
     40 C          25.3230   74.4772    4.5557 C.3     1  UNL1        0.0946
     41 N          22.8752   74.1231    4.5483 N.am    1  UNL1       -0.2994
     42 O          23.7031   76.1127    5.0747 O.2     1  UNL1       -0.2751
     43 H          23.0402   73.2045    4.2837 H       1  UNL1        0.1496
     44 C          17.2261   74.5661    4.7464 C.3     1  UNL1        0.1693
     45 O          16.5169   73.7820    5.7080 O.3     1  UNL1       -0.3794
     46 H          15.5943   74.0455    5.8278 H       1  UNL1        0.2105
@<TRIPOS>BOND
     1    29    30    1
     2    30    41    1
     3    30    31    1
     4    31    34    1
     5    31    32    1
     6    32    35    1
     7    32    33    1
     8    33    36    1
     9    33    44    1
    10    39    40    1
    11    39    42    2
    12    39    41   am
    13    41    43    1
    14    29    28    1
    15    34    37    1
    16    35    38    1
    17    29    36    1
    18    44    45    1
    19    45    46    1
    20    15     6    1
    21    15    16   ar
    22    16    21    2
    23    16    17   ar
    24    17    23    1
    25    17    18   ar
    26    18    19   ar
    27    19    20   ar
    28    15    20   ar
    29    18    22    2
    30     6     7    1
    31     6    11    1
    32     7     9    1
    33     7     8    1
    34     8    13    1
    35     9    10    1
    36     9    12    1
    37    10     5    1
    38    10    11    1
    39    12    14    1
    40     5     4    1
    41     4     1    1
    42     1     2    1
    43     1    24    1
    44     1     3    2
    45    24    25    1
    46    28    25    1
    47    25    26    1
    48    25    27    2
@<TRIPOS>MOLECULE
UD2
 46 48 0 0 0
SMALL
GASTEIGER

@<TRIPOS>ATOM
      1 P          19.7215   70.5692   -2.9403 P.3     1  UNL1        0.2189
      2 O          19.8147   68.9684   -2.7981 O.3     1  UNL1       -0.4371
      3 O          18.3860   70.9423   -3.4562 O.2     1  UNL1       -0.5170
      4 O          19.9495   71.2500   -1.4987 O.3     1  UNL1       -0.3112
      5 C          21.2456   71.4676   -0.9383 C.3     1  UNL1        0.1811
      6 C          21.7589   74.1558    1.3956 C.3     1  UNL1        0.2383
      7 C          23.1750   73.8341    0.8541 C.3     1  UNL1        0.1895
      8 O          23.9932   75.0054    0.8379 O.3     1  UNL1       -0.3779
      9 C          22.8711   73.3525   -0.5857 C.3     1  UNL1        0.1713
     10 C          21.3879   72.9385   -0.5391 C.3     1  UNL1        0.1764
     11 O          20.9340   73.1246    0.8111 O.3     1  UNL1       -0.3308
     12 O          23.0647   74.4167   -1.5189 O.3     1  UNL1       -0.3794
     13 H          24.8893   74.8551    0.5075 H       1  UNL1        0.2106
     14 H          23.9692   74.7566   -1.5469 H       1  UNL1        0.2105
     15 N          21.7339   74.0703    2.8575 N.ar    1  UNL1       -0.2551
     16 C          21.6397   72.8681    3.4531 C.ar    1  UNL1        0.3323
     17 N          21.6144   72.7598    4.7947 N.ar    1  UNL1       -0.2743
     18 C          21.6855   73.8635    5.5662 C.ar    1  UNL1        0.2626
     19 C          21.7860   75.1353    4.9525 C.ar    1  UNL1        0.0795
     20 C          21.8135   75.2140    3.6055 C.ar    1  UNL1        0.0869
     21 O          21.5750   71.8644    2.7700 O.2     1  UNL1       -0.2464
     22 O          21.6631   73.7668    6.7806 O.2     1  UNL1       -0.2670
     23 H          21.5449   71.8854    5.2079 H       1  UNL1        0.1734
     24 O          20.8549   71.0845   -3.9616 O.3     1  UNL1       -0.2703
     25 P          21.0608   72.4347   -4.8145 P.3     1  UNL1        0.2208
     26 O          20.5775   73.6991   -3.9418 O.3     1  UNL1       -0.4371
     27 O          22.4918   72.5896   -5.1557 O.2     1  UNL1       -0.5170
     28 O          20.1918   72.3524   -6.1676 O.3     1  UNL1       -0.2865
     29 C          20.2480   71.2399   -7.0624 C.3     1  UNL1        0.2611
     30 C          20.1776   71.7415   -8.5067 C.3     1  UNL1        0.1582
     31 C          18.8370   72.4489   -8.7277 C.3     1  UNL1        0.1625
     32 C          17.6995   71.4799   -8.3936 C.3     1  UNL1        0.1686
     33 C          17.8655   70.9883   -6.9532 C.3     1  UNL1        0.1760
     34 O          18.7318   72.8561  -10.0938 O.3     1  UNL1       -0.3801
     35 O          17.7433   70.3658   -9.2871 O.3     1  UNL1       -0.3794
     36 O          19.1446   70.3681   -6.8076 O.3     1  UNL1       -0.3263
     37 H          17.9058   73.3125  -10.3053 H       1  UNL1        0.2105
     38 H          17.0497   69.7093   -9.1324 H       1  UNL1        0.2105
     39 C          21.0737   74.0057   -8.5970 C.2     1  UNL1        0.2231
     40 C          22.2002   74.9733   -8.8488 C.3     1  UNL1        0.0946
     41 N          21.2738   72.6821   -8.7520 N.am    1  UNL1       -0.2994
     42 O          19.9851   74.4177   -8.2544 O.2     1  UNL1       -0.2751
     43 H          22.1437   72.3523   -9.0269 H       1  UNL1        0.1496
     44 C          16.7668   69.9737   -6.6311 C.3     1  UNL1        0.1693
     45 O          16.7668   69.6996   -5.2285 O.3     1  UNL1       -0.3794
     46 H          16.0940   69.0626   -4.9516 H       1  UNL1        0.2105
@<TRIPOS>BOND
     1    29    30    1
     2    30    41    1
     3    30    31    1
     4    31    34    1
     5    31    32    1
     6    32    35    1
     7    32    33    1
     8    33    36    1
     9    33    44    1
    10    39    40    1
    11    39    42    2
    12    39    41   am
    13    41    43    1
    14    29    28    1
    15    34    37    1
    16    35    38    1
    17    29    36    1
    18    44    45    1
    19    45    46    1
    20    15     6    1
    21    15    16   ar
    22    16    21    2
    23    16    17   ar
    24    17    23    1
    25    17    18   ar
    26    18    19   ar
    27    19    20   ar
    28    15    20   ar
    29    18    22    2
    30     6     7    1
    31     6    11    1
    32     7     9    1
    33     7     8    1
    34     8    13    1
    35     9    10    1
    36     9    12    1
    37    10     5    1
    38    10    11    1
    39    12    14    1
    40     5     4    1
    41     4     1    1
    42     1     2    1
    43     1    24    1
    44     1     3    2
    45    24    25    1
    46    28    25    1
    47    25    26    1
    48    25    27    2
@<TRIPOS>MOLECULE
UD2
 46 48 0 0 0
SMALL
GASTEIGER

@<TRIPOS>ATOM
      1 P          20.8581   74.9812   -3.6004 P.3     1  UNL1        0.2189
      2 O          19.3130   74.5925   -3.3702 O.3     1  UNL1       -0.4371
      3 O          20.9897   76.4523   -3.6868 O.2     1  UNL1       -0.5170
      4 O          21.7382   74.4350   -2.3673 O.3     1  UNL1       -0.3112
      5 C          21.2572   73.4589   -1.4414 C.3     1  UNL1        0.1811
      6 C          23.0764   72.4568    1.4951 C.3     1  UNL1        0.2383
      7 C          22.2483   71.2064    1.1041 C.3     1  UNL1        0.1895
      8 O          22.9302   70.0067    1.4746 O.3     1  UNL1       -0.3779
      9 C          22.1639   71.3407   -0.4361 C.3     1  UNL1        0.1713
     10 C          22.4410   72.8331   -0.6997 C.3     1  UNL1        0.1764
     11 O          22.6090   73.4691    0.5773 O.3     1  UNL1       -0.3308
     12 O          23.1582   70.5286   -1.0629 O.3     1  UNL1       -0.3794
     13 H          22.4516   69.1969    1.2513 H       1  UNL1        0.2106
     14 H          23.0667   69.5835   -0.8817 H       1  UNL1        0.2105
     15 N          22.7991   72.8471    2.8792 N.ar    1  UNL1       -0.2551
     16 C          21.6166   72.5311    3.4365 C.ar    1  UNL1        0.3323
     17 N          21.3347   72.8773    4.7065 N.ar    1  UNL1       -0.2743
     18 C          22.2418   73.5494    5.4441 C.ar    1  UNL1        0.2626
     19 C          23.4911   73.8876    4.8705 C.ar    1  UNL1        0.0795
     20 C          23.7485   73.5242    3.5964 C.ar    1  UNL1        0.0869
     21 O          20.7893   71.9251    2.7833 O.2     1  UNL1       -0.2464
     22 O          21.9881   73.8629    6.5938 O.2     1  UNL1       -0.2670
     23 H          20.4767   72.6427    5.0925 H       1  UNL1        0.1734
     24 O          21.3814   74.3140   -4.9694 O.3     1  UNL1       -0.2703
     25 P          21.6770   72.8007   -5.4338 P.3     1  UNL1        0.2208
     26 O          22.5982   72.8154   -6.7548 O.3     1  UNL1       -0.4371
     27 O          22.3808   72.0804   -4.3503 O.2     1  UNL1       -0.5170
     28 O          20.2858   72.0574   -5.7575 O.3     1  UNL1       -0.2865
     29 C          19.1531   72.7313   -6.3091 C.3     1  UNL1        0.2611
     30 C          17.8706   72.0259   -5.8614 C.3     1  UNL1        0.1582
     31 C          17.8697   70.5936   -6.4046 C.3     1  UNL1        0.1625
     32 C          18.0064   70.6371   -7.9290 C.3     1  UNL1        0.1686
     33 C          19.2840   71.3962   -8.2970 C.3     1  UNL1        0.1760
     34 O          16.6422   69.9508   -6.0534 O.3     1  UNL1       -0.3801
     35 O          16.8751   71.3044   -8.4912 O.3     1  UNL1       -0.3794
     36 O          19.2344   72.7094   -7.7357 O.3     1  UNL1       -0.3263
     37 H          16.5734   69.0381   -6.3654 H       1  UNL1        0.2105
     38 H          16.8954   71.3693   -9.4563 H       1  UNL1        0.2105
     39 C          16.6300   72.1085   -3.7658 C.2     1  UNL1        0.2231
     40 C          16.5718   72.0760   -2.2611 C.3     1  UNL1        0.0946
     41 N          17.8148   71.9945   -4.3977 N.am    1  UNL1       -0.2994
     42 O          15.6099   72.2374   -4.4098 O.2     1  UNL1       -0.2751
     43 H          18.6308   71.8924   -3.8832 H       1  UNL1        0.1496
     44 C          19.3971   71.4959   -9.8195 C.3     1  UNL1        0.1693
     45 O          18.7456   70.3750  -10.4207 O.3     1  UNL1       -0.3794
     46 H          18.7779   70.3724  -11.3871 H       1  UNL1        0.2105
@<TRIPOS>BOND
     1    29    30    1
     2    30    41    1
     3    30    31    1
     4    31    34    1
     5    31    32    1
     6    32    35    1
     7    32    33    1
     8    33    36    1
     9    33    44    1
    10    39    40    1
    11    39    42    2
    12    39    41   am
    13    41    43    1
    14    29    28    1
    15    34    37    1
    16    35    38    1
    17    29    36    1
    18    44    45    1
    19    45    46    1
    20    15     6    1
    21    15    16   ar
    22    16    21    2
    23    16    17   ar
    24    17    23    1
    25    17    18   ar
    26    18    19   ar
    27    19    20   ar
    28    15    20   ar
    29    18    22    2
    30     6     7    1
    31     6    11    1
    32     7     9    1
    33     7     8    1
    34     8    13    1
    35     9    10    1
    36     9    12    1
    37    10     5    1
    38    10    11    1
    39    12    14    1
    40     5     4    1
    41     4     1    1
    42     1     2    1
    43     1    24    1
    44     1     3    2
    45    24    25    1
    46    28    25    1
    47    25    26    1
    48    25    27    2
@<TRIPOS>MOLECULE
UD2
 46 48 0 0 0
SMALL
GASTEIGER

@<TRIPOS>ATOM
      1 P          19.3268   69.8579   -2.8901 P.3     1  UNL1        0.2189
      2 O          18.2972   68.6231   -2.8101 O.3     1  UNL1       -0.4371
      3 O          20.4124   69.5349   -3.8420 O.2     1  UNL1       -0.5170
      4 O          18.5472   71.1749   -3.3917 O.3     1  UNL1       -0.3112
      5 C          18.8061   72.4783   -2.8670 C.3     1  UNL1        0.1811
      6 C          18.6653   73.4782   -6.3191 C.3     1  UNL1        0.2383
      7 C          17.1889   73.4954   -5.8478 C.3     1  UNL1        0.1895
      8 O          16.4400   74.4874   -6.5528 O.3     1  UNL1       -0.3779
      9 C          17.3293   73.8689   -4.3518 C.3     1  UNL1        0.1713
     10 C          18.7847   73.5000   -4.0066 C.3     1  UNL1        0.1764
     11 O          19.3726   72.9288   -5.1862 O.3     1  UNL1       -0.3308
     12 O          17.1095   75.2679   -4.1641 O.3     1  UNL1       -0.3794
     13 H          15.5099   74.5364   -6.2934 H       1  UNL1        0.2106
     14 H          16.2269   75.5663   -4.4219 H       1  UNL1        0.2105
     15 N          18.8220   72.6166   -7.4930 N.ar    1  UNL1       -0.2551
     16 C          18.7006   73.1410   -8.7255 C.ar    1  UNL1        0.3323
     17 N          18.8395   72.3727   -9.8221 N.ar    1  UNL1       -0.2743
     18 C          19.1062   71.0565   -9.6993 C.ar    1  UNL1        0.2626
     19 C          19.2376   70.4914   -8.4080 C.ar    1  UNL1        0.0795
     20 C          19.0976   71.2861   -7.3261 C.ar    1  UNL1        0.0869
     21 O          18.4604   74.3263   -8.8513 O.2     1  UNL1       -0.2464
     22 O          19.2326   70.3600  -10.6910 O.2     1  UNL1       -0.2670
     23 H          18.7476   72.7666  -10.7033 H       1  UNL1        0.1734
     24 O          19.9542   70.1292   -1.4320 O.3     1  UNL1       -0.2703
     25 P          21.4360   70.4622   -0.8970 P.3     1  UNL1        0.2208
     26 O          21.7280   69.6104    0.4383 O.3     1  UNL1       -0.4371
     27 O          22.4275   70.1057   -1.9354 O.2     1  UNL1       -0.5170
     28 O          21.5464   72.0342   -0.5661 O.3     1  UNL1       -0.2865
     29 C          22.7944   72.7066   -0.3886 C.3     1  UNL1        0.2611
     30 C          22.5768   73.9804    0.4316 C.3     1  UNL1        0.1582
     31 C          21.6469   74.9217   -0.3403 C.3     1  UNL1        0.1625
     32 C          22.2584   75.2130   -1.7135 C.3     1  UNL1        0.1686
     33 C          22.4883   73.8913   -2.4512 C.3     1  UNL1        0.1760
     34 O          21.4968   76.1444    0.3847 O.3     1  UNL1       -0.3801
     35 O          23.5050   75.8909   -1.5472 O.3     1  UNL1       -0.3794
     36 O          23.3357   73.0504   -1.6658 O.3     1  UNL1       -0.3263
     37 H          20.9187   76.7886   -0.0467 H       1  UNL1        0.2105
     38 H          23.9500   76.1068   -2.3787 H       1  UNL1        0.2105
     39 C          22.6447   73.8449    2.8636 C.2     1  UNL1        0.2231
     40 C          22.0179   73.4910    4.1866 C.3     1  UNL1        0.0946
     41 N          21.9664   73.6356    1.7181 N.am    1  UNL1       -0.2994
     42 O          23.7612   74.3188    2.8286 O.2     1  UNL1       -0.2751
     43 H          21.0742   73.2559    1.7456 H       1  UNL1        0.1496
     44 C          23.1542   74.1696   -3.8002 C.3     1  UNL1        0.1693
     45 O          23.8646   73.0066   -4.2305 O.3     1  UNL1       -0.3794
     46 H          24.3127   73.1110   -5.0810 H       1  UNL1        0.2105
@<TRIPOS>BOND
     1    29    30    1
     2    30    41    1
     3    30    31    1
     4    31    34    1
     5    31    32    1
     6    32    35    1
     7    32    33    1
     8    33    36    1
     9    33    44    1
    10    39    40    1
    11    39    42    2
    12    39    41   am
    13    41    43    1
    14    29    28    1
    15    34    37    1
    16    35    38    1
    17    29    36    1
    18    44    45    1
    19    45    46    1
    20    15     6    1
    21    15    16   ar
    22    16    21    2
    23    16    17   ar
    24    17    23    1
    25    17    18   ar
    26    18    19   ar
    27    19    20   ar
    28    15    20   ar
    29    18    22    2
    30     6     7    1
    31     6    11    1
    32     7     9    1
    33     7     8    1
    34     8    13    1
    35     9    10    1
    36     9    12    1
    37    10     5    1
    38    10    11    1
    39    12    14    1
    40     5     4    1
    41     4     1    1
    42     1     2    1
    43     1    24    1
    44     1     3    2
    45    24    25    1
    46    28    25    1
    47    25    26    1
    48    25    27    2
@<TRIPOS>MOLECULE
UD2
 46 48 0 0 0
SMALL
GASTEIGER

@<TRIPOS>ATOM
      1 P          22.7615   71.9356   -3.2425 P.3     1  UNL1        0.2189
      2 O          23.0055   72.6867   -1.8398 O.3     1  UNL1       -0.4371
      3 O          23.4789   70.6417   -3.2413 O.2     1  UNL1       -0.5170
      4 O          21.1850   71.6751   -3.4444 O.3     1  UNL1       -0.3112
      5 C          20.1908   72.2071   -2.5670 C.3     1  UNL1        0.1811
      6 C          17.9462   71.3974   -5.2582 C.3     1  UNL1        0.2383
      7 C          17.9865   70.1171   -4.3857 C.3     1  UNL1        0.1895
      8 O          16.7424   69.4171   -4.4495 O.3     1  UNL1       -0.3779
      9 C          18.2225   70.6960   -2.9692 C.3     1  UNL1        0.1713
     10 C          18.8148   72.0945   -3.2279 C.3     1  UNL1        0.1764
     11 O          18.9418   72.2489   -4.6504 O.3     1  UNL1       -0.3308
     12 O          16.9867   70.7991   -2.2601 O.3     1  UNL1       -0.3794
     13 H          16.7183   68.6083   -3.9204 H       1  UNL1        0.2106
     14 H          16.5404   69.9529   -2.1210 H       1  UNL1        0.2105
     15 N          18.3070   71.0890   -6.6438 N.ar    1  UNL1       -0.2551
     16 C          17.3424   70.7963   -7.5342 C.ar    1  UNL1        0.3323
     17 N          17.6451   70.5088   -8.8140 N.ar    1  UNL1       -0.2743
     18 C          18.9295   70.5120   -9.2249 C.ar    1  UNL1        0.2626
     19 C          19.9549   70.8193   -8.2985 C.ar    1  UNL1        0.0795
     20 C          19.6223   71.1078   -7.0227 C.ar    1  UNL1        0.0869
     21 O          16.1800   70.7899   -7.1778 O.2     1  UNL1       -0.2464
     22 O          19.2047   70.2524  -10.3830 O.2     1  UNL1       -0.2670
     23 H          16.9374   70.2988   -9.4427 H       1  UNL1        0.1734
     24 O          23.3114   72.8536   -4.4459 O.3     1  UNL1       -0.2703
     25 P          23.1478   74.4087   -4.8303 P.3     1  UNL1        0.2208
     26 O          22.8418   74.5422   -6.4058 O.3     1  UNL1       -0.4371
     27 O          22.0281   74.9925   -4.0597 O.2     1  UNL1       -0.5170
     28 O          24.5088   75.1943   -4.4791 O.3     1  UNL1       -0.2865
     29 C          25.3570   74.8324   -3.3878 C.3     1  UNL1        0.2611
     30 C          25.4521   76.0016   -2.4047 C.3     1  UNL1        0.1582
     31 C          26.0901   77.2014   -3.1117 C.3     1  UNL1        0.1625
     32 C          27.4599   76.7892   -3.6577 C.3     1  UNL1        0.1686
     33 C          27.2874   75.5894   -4.5929 C.3     1  UNL1        0.1760
     34 O          26.2501   78.2742   -2.1807 O.3     1  UNL1       -0.3801
     35 O          28.3182   76.4307   -2.5733 O.3     1  UNL1       -0.3794
     36 O          26.6610   74.5197   -3.8820 O.3     1  UNL1       -0.3263
     37 H          26.6488   79.0687   -2.5616 H       1  UNL1        0.2105
     38 H          29.2052   76.1574   -2.8465 H       1  UNL1        0.2105
     39 C          23.9054   76.6847   -0.6500 C.2     1  UNL1        0.2231
     40 C          22.5255   77.0563   -0.1742 C.3     1  UNL1        0.0946
     41 N          24.1095   76.3628   -1.9426 N.am    1  UNL1       -0.2994
     42 O          24.8343   76.6749    0.1307 O.2     1  UNL1       -0.2751
     43 H          23.3670   76.3695   -2.5668 H       1  UNL1        0.1496
     44 C          28.6584   75.1339   -5.0960 C.3     1  UNL1        0.1693
     45 O          29.1336   74.0609   -4.2804 O.3     1  UNL1       -0.3794
     46 H          30.0002   73.7211   -4.5422 H       1  UNL1        0.2105
@<TRIPOS>BOND
     1    29    30    1
     2    30    41    1
     3    30    31    1
     4    31    34    1
     5    31    32    1
     6    32    35    1
     7    32    33    1
     8    33    36    1
     9    33    44    1
    10    39    40    1
    11    39    42    2
    12    39    41   am
    13    41    43    1
    14    29    28    1
    15    34    37    1
    16    35    38    1
    17    29    36    1
    18    44    45    1
    19    45    46    1
    20    15     6    1
    21    15    16   ar
    22    16    21    2
    23    16    17   ar
    24    17    23    1
    25    17    18   ar
    26    18    19   ar
    27    19    20   ar
    28    15    20   ar
    29    18    22    2
    30     6     7    1
    31     6    11    1
    32     7     9    1
    33     7     8    1
    34     8    13    1
    35     9    10    1
    36     9    12    1
    37    10     5    1
    38    10    11    1
    39    12    14    1
    40     5     4    1
    41     4     1    1
    42     1     2    1
    43     1    24    1
    44     1     3    2
    45    24    25    1
    46    28    25    1
    47    25    26    1
    48    25    27    2
@<TRIPOS>MOLECULE
UD2
 46 48 0 0 0
SMALL
GASTEIGER

@<TRIPOS>ATOM
      1 P          21.5002   70.3322   -2.3766 P.3     1  UNL1        0.2189
      2 O          22.9893   70.5190   -2.9587 O.3     1  UNL1       -0.4371
      3 O          21.5663   69.6763   -1.0521 O.2     1  UNL1       -0.5170
      4 O          20.7978   71.7738   -2.2273 O.3     1  UNL1       -0.3112
      5 C          20.1532   72.2036   -1.0268 C.3     1  UNL1        0.1811
      6 C          21.6445   74.4320    1.3705 C.3     1  UNL1        0.2383
      7 C          22.8479   73.7602    0.6616 C.3     1  UNL1        0.1895
      8 O          23.9705   74.6430    0.6155 O.3     1  UNL1       -0.3779
      9 C          22.2874   73.5045   -0.7589 C.3     1  UNL1        0.1713
     10 C          20.7585   73.5336   -0.5713 C.3     1  UNL1        0.1764
     11 O          20.5029   73.7332    0.8281 O.3     1  UNL1       -0.3308
     12 O          22.7019   74.5393   -1.6524 O.3     1  UNL1       -0.3794
     13 H          24.7488   74.2678    0.1819 H       1  UNL1        0.2106
     14 H          23.6601   74.6049   -1.7619 H       1  UNL1        0.2105
     15 N          21.7266   74.2396    2.8201 N.ar    1  UNL1       -0.2551
     16 C          21.4946   73.0234    3.3451 C.ar    1  UNL1        0.3323
     17 N          21.5630   72.8178    4.6738 N.ar    1  UNL1       -0.2743
     18 C          21.8693   73.8360    5.5032 C.ar    1  UNL1        0.2626
     19 C          22.1169   75.1214    4.9640 C.ar    1  UNL1        0.0795
     20 C          22.0456   75.2978    3.6279 C.ar    1  UNL1        0.0869
     21 O          21.2175   72.0960    2.6092 O.2     1  UNL1       -0.2464
     22 O          21.9319   73.6512    6.7059 O.2     1  UNL1       -0.2670
     23 H          21.3916   71.9348    5.0359 H       1  UNL1        0.1734
     24 O          20.6397   69.4188   -3.3858 O.3     1  UNL1       -0.2703
     25 P          19.0635   69.1660   -3.5970 P.3     1  UNL1        0.2208
     26 O          18.8070   67.6058   -3.9031 O.3     1  UNL1       -0.4371
     27 O          18.3328   69.5542   -2.3707 O.2     1  UNL1       -0.5170
     28 O          18.5397   70.0498   -4.8368 O.3     1  UNL1       -0.2865
     29 C          19.2630   71.1666   -5.3572 C.3     1  UNL1        0.2611
     30 C          18.3468   72.3918   -5.4046 C.3     1  UNL1        0.1582
     31 C          17.1798   72.1095   -6.3557 C.3     1  UNL1        0.1625
     32 C          17.7359   71.7468   -7.7354 C.3     1  UNL1        0.1686
     33 C          18.6758   70.5461   -7.5982 C.3     1  UNL1        0.1760
     34 O          16.3588   73.2747   -6.4629 O.3     1  UNL1       -0.3801
     35 O          18.4566   72.8598   -8.2675 O.3     1  UNL1       -0.3794
     36 O          19.7208   70.8642   -6.6768 O.3     1  UNL1       -0.3263
     37 H          15.5982   73.1668   -7.0503 H       1  UNL1        0.2105
     38 H          18.8384   72.7003   -9.1420 H       1  UNL1        0.2105
     39 C          16.6416   72.1573   -3.6799 C.2     1  UNL1        0.2231
     40 C          16.1084   72.4401   -2.2999 C.3     1  UNL1        0.0946
     41 N          17.8288   72.6676   -4.0622 N.am    1  UNL1       -0.2994
     42 O          16.0022   71.4695   -4.4482 O.2     1  UNL1       -0.2751
     43 H          18.3399   73.2183   -3.4486 H       1  UNL1        0.1496
     44 C          19.2822   70.2148   -8.9631 C.3     1  UNL1        0.1693
     45 O          18.2849   70.3606   -9.9762 O.3     1  UNL1       -0.3794
     46 H          18.5996   70.1659  -10.8696 H       1  UNL1        0.2105
@<TRIPOS>BOND
     1    29    30    1
     2    30    41    1
     3    30    31    1
     4    31    34    1
     5    31    32    1
     6    32    35    1
     7    32    33    1
     8    33    36    1
     9    33    44    1
    10    39    40    1
    11    39    42    2
    12    39    41   am
    13    41    43    1
    14    29    28    1
    15    34    37    1
    16    35    38    1
    17    29    36    1
    18    44    45    1
    19    45    46    1
    20    15     6    1
    21    15    16   ar
    22    16    21    2
    23    16    17   ar
    24    17    23    1
    25    17    18   ar
    26    18    19   ar
    27    19    20   ar
    28    15    20   ar
    29    18    22    2
    30     6     7    1
    31     6    11    1
    32     7     9    1
    33     7     8    1
    34     8    13    1
    35     9    10    1
    36     9    12    1
    37    10     5    1
    38    10    11    1
    39    12    14    1
    40     5     4    1
    41     4     1    1
    42     1     2    1
    43     1    24    1
    44     1     3    2
    45    24    25    1
    46    28    25    1
    47    25    26    1
    48    25    27    2
@<TRIPOS>MOLECULE
UD2
 46 48 0 0 0
SMALL
GASTEIGER

@<TRIPOS>ATOM
      1 P          19.8170   71.0279   -4.0196 P.3     1  UNL1        0.2189
      2 O          19.7817   69.5786   -4.7193 O.3     1  UNL1       -0.4371
      3 O          20.9341   71.8198   -4.5800 O.2     1  UNL1       -0.5170
      4 O          18.4262   71.7913   -4.2963 O.3     1  UNL1       -0.3112
      5 C          17.3881   71.2440   -5.1114 C.3     1  UNL1        0.1811
      6 C          18.7453   73.0310   -7.9222 C.3     1  UNL1        0.2383
      7 C          18.5934   71.5725   -8.4242 C.3     1  UNL1        0.1895
      8 O          18.3287   71.5412   -9.8280 O.3     1  UNL1       -0.3779
      9 C          17.3665   71.0778   -7.6196 C.3     1  UNL1        0.1713
     10 C          17.2930   72.0377   -6.4167 C.3     1  UNL1        0.1764
     11 O          18.4051   72.9409   -6.5216 O.3     1  UNL1       -0.3308
     12 O          16.1801   71.1737   -8.4097 O.3     1  UNL1       -0.3794
     13 H          18.2263   70.6504  -10.1894 H       1  UNL1        0.2106
     14 H          16.1962   70.6344   -9.2118 H       1  UNL1        0.2105
     15 N          20.1250   73.4930   -8.0897 N.ar    1  UNL1       -0.2551
     16 C          21.1341   72.6045   -8.0560 C.ar    1  UNL1        0.3323
     17 N          22.4116   73.0010   -8.2069 N.ar    1  UNL1       -0.2743
     18 C          22.6997   74.3046   -8.3973 C.ar    1  UNL1        0.2626
     19 C          21.6473   75.2506   -8.4360 C.ar    1  UNL1        0.0795
     20 C          20.3755   74.8245   -8.2860 C.ar    1  UNL1        0.0869
     21 O          20.8890   71.4259   -7.8853 O.2     1  UNL1       -0.2464
     22 O          23.8556   74.6647   -8.5344 O.2     1  UNL1       -0.2670
     23 H          23.1273   72.3474   -8.1788 H       1  UNL1        0.1734
     24 O          20.0259   70.8531   -2.4325 O.3     1  UNL1       -0.2703
     25 P          21.3190   70.7976   -1.4745 P.3     1  UNL1        0.2208
     26 O          21.0125   69.8420   -0.2149 O.3     1  UNL1       -0.4371
     27 O          22.4712   70.2607   -2.2313 O.2     1  UNL1       -0.5170
     28 O          21.6638   72.2811   -0.9520 O.3     1  UNL1       -0.2865
     29 C          23.0005   72.7498   -0.7659 C.3     1  UNL1        0.2611
     30 C          22.9973   73.9308    0.2078 C.3     1  UNL1        0.1582
     31 C          22.1822   75.0779   -0.3973 C.3     1  UNL1        0.1625
     32 C          22.7764   75.4496   -1.7585 C.3     1  UNL1        0.1686
     33 C          22.7881   74.2097   -2.6567 C.3     1  UNL1        0.1760
     34 O          22.2349   76.2112    0.4724 O.3     1  UNL1       -0.3801
     35 O          24.1121   75.9253   -1.5828 O.3     1  UNL1       -0.3794
     36 O          23.5364   73.1709   -2.0220 O.3     1  UNL1       -0.3263
     37 H          21.7383   76.9763    0.1511 H       1  UNL1        0.2105
     38 H          24.5516   76.1790   -2.4065 H       1  UNL1        0.2105
     39 C          22.9642   73.8755    2.6437 C.2     1  UNL1        0.2231
     40 C          22.3437   73.4508    3.9487 C.3     1  UNL1        0.0946
     41 N          22.3932   73.5170    1.4768 N.am    1  UNL1       -0.2994
     42 O          23.9788   74.5409    2.6423 O.2     1  UNL1       -0.2751
     43 H          21.5826   72.9842    1.4774 H       1  UNL1        0.1496
     44 C          23.4353   74.5583   -3.9983 C.3     1  UNL1        0.1693
     45 O          24.7775   74.0682   -4.0222 O.3     1  UNL1       -0.3794
     46 H          25.2500   74.2539   -4.8452 H       1  UNL1        0.2105
@<TRIPOS>BOND
     1    29    30    1
     2    30    41    1
     3    30    31    1
     4    31    34    1
     5    31    32    1
     6    32    35    1
     7    32    33    1
     8    33    36    1
     9    33    44    1
    10    39    40    1
    11    39    42    2
    12    39    41   am
    13    41    43    1
    14    29    28    1
    15    34    37    1
    16    35    38    1
    17    29    36    1
    18    44    45    1
    19    45    46    1
    20    15     6    1
    21    15    16   ar
    22    16    21    2
    23    16    17   ar
    24    17    23    1
    25    17    18   ar
    26    18    19   ar
    27    19    20   ar
    28    15    20   ar
    29    18    22    2
    30     6     7    1
    31     6    11    1
    32     7     9    1
    33     7     8    1
    34     8    13    1
    35     9    10    1
    36     9    12    1
    37    10     5    1
    38    10    11    1
    39    12    14    1
    40     5     4    1
    41     4     1    1
    42     1     2    1
    43     1    24    1
    44     1     3    2
    45    24    25    1
    46    28    25    1
    47    25    26    1
    48    25    27    2
@<TRIPOS>MOLECULE
UD2
 46 48 0 0 0
SMALL
GASTEIGER

@<TRIPOS>ATOM
      1 P          21.8990   70.8702   -2.9035 P.3     1  UNL1        0.2189
      2 O          21.3372   72.1274   -3.7374 O.3     1  UNL1       -0.4371
      3 O          23.3145   70.6324   -3.2621 O.2     1  UNL1       -0.5170
      4 O          21.7894   71.1801   -1.3269 O.3     1  UNL1       -0.3112
      5 C          20.6666   71.8416   -0.7411 C.3     1  UNL1        0.1811
      6 C          21.7359   74.3196    1.6364 C.3     1  UNL1        0.2383
      7 C          23.0503   73.7845    1.0134 C.3     1  UNL1        0.1895
      8 O          24.0535   74.8017    0.9871 O.3     1  UNL1       -0.3779
      9 C          22.6026   73.4129   -0.4214 C.3     1  UNL1        0.1713
     10 C          21.0745   73.2523   -0.3093 C.3     1  UNL1        0.1764
     11 O          20.7219   73.4632    1.0671 O.3     1  UNL1       -0.3308
     12 O          22.9301   74.4624   -1.3337 O.3     1  UNL1       -0.3794
     13 H          24.8948   74.5151    0.6067 H       1  UNL1        0.2106
     14 H          23.8768   74.6465   -1.3992 H       1  UNL1        0.2105
     15 N          21.7647   74.1869    3.0946 N.ar    1  UNL1       -0.2551
     16 C          21.5795   72.9797    3.6577 C.ar    1  UNL1        0.3323
     17 N          21.6007   72.8284    4.9952 N.ar    1  UNL1       -0.2743
     18 C          21.8115   73.8932    5.7954 C.ar    1  UNL1        0.2626
     19 C          22.0090   75.1698    5.2161 C.ar    1  UNL1        0.0795
     20 C          21.9869   75.2915    3.8722 C.ar    1  UNL1        0.0869
     21 O          21.3886   72.0107    2.9484 O.2     1  UNL1       -0.2464
     22 O          21.8313   73.7576    7.0061 O.2     1  UNL1       -0.2670
     23 H          21.4642   71.9511    5.3848 H       1  UNL1        0.1734
     24 O          21.0290   69.5613   -3.2542 O.3     1  UNL1       -0.2703
     25 P          19.4500   69.2502   -3.3090 P.3     1  UNL1        0.2208
     26 O          19.2212   67.7066   -3.7077 O.3     1  UNL1       -0.4371
     27 O          18.8493   69.5107   -1.9825 O.2     1  UNL1       -0.5170
     28 O          18.7543   70.1979   -4.4092 O.3     1  UNL1       -0.2865
     29 C          17.3861   70.0642   -4.7984 C.3     1  UNL1        0.2611
     30 C          17.1241   70.9124   -6.0453 C.3     1  UNL1        0.1582
     31 C          17.3705   72.3867   -5.7104 C.3     1  UNL1        0.1625
     32 C          16.4743   72.7889   -4.5359 C.3     1  UNL1        0.1686
     33 C          16.7615   71.8682   -3.3469 C.3     1  UNL1        0.1760
     34 O          17.0574   73.1933   -6.8482 O.3     1  UNL1       -0.3801
     35 O          15.1030   72.6643   -4.9169 O.3     1  UNL1       -0.3794
     36 O          16.5428   70.5103   -3.7343 O.3     1  UNL1       -0.3263
     37 H          17.1914   74.1406   -6.7071 H       1  UNL1        0.2105
     38 H          14.4769   72.9028   -4.2189 H       1  UNL1        0.2105
     39 C          19.2102   71.1241   -7.2866 C.2     1  UNL1        0.2231
     40 C          20.1418   70.6968   -8.3903 C.3     1  UNL1        0.0946
     41 N          18.0296   70.4963   -7.1193 N.am    1  UNL1       -0.2994
     42 O          19.5224   72.0342   -6.5475 O.2     1  UNL1       -0.2751
     43 H          17.7791   69.7692   -7.7106 H       1  UNL1        0.1496
     44 C          15.8280   72.2251   -2.1886 C.3     1  UNL1        0.1693
     45 O          14.5720   71.5673   -2.3681 O.3     1  UNL1       -0.3794
     46 H          13.9290   71.7486   -1.6690 H       1  UNL1        0.2105
@<TRIPOS>BOND
     1    29    30    1
     2    30    41    1
     3    30    31    1
     4    31    34    1
     5    31    32    1
     6    32    35    1
     7    32    33    1
     8    33    36    1
     9    33    44    1
    10    39    40    1
    11    39    42    2
    12    39    41   am
    13    41    43    1
    14    29    28    1
    15    34    37    1
    16    35    38    1
    17    29    36    1
    18    44    45    1
    19    45    46    1
    20    15     6    1
    21    15    16   ar
    22    16    21    2
    23    16    17   ar
    24    17    23    1
    25    17    18   ar
    26    18    19   ar
    27    19    20   ar
    28    15    20   ar
    29    18    22    2
    30     6     7    1
    31     6    11    1
    32     7     9    1
    33     7     8    1
    34     8    13    1
    35     9    10    1
    36     9    12    1
    37    10     5    1
    38    10    11    1
    39    12    14    1
    40     5     4    1
    41     4     1    1
    42     1     2    1
    43     1    24    1
    44     1     3    2
    45    24    25    1
    46    28    25    1
    47    25    26    1
    48    25    27    2
@<TRIPOS>MOLECULE
UD2
 46 48 0 0 0
SMALL
GASTEIGER

@<TRIPOS>ATOM
      1 P          21.8819   70.7418   -2.8479 P.3     1  UNL1        0.2189
      2 O          23.4394   70.7190   -3.2541 O.3     1  UNL1       -0.4371
      3 O          21.3986   69.3554   -2.6659 O.2     1  UNL1       -0.5170
      4 O          21.6982   71.5592   -1.4724 O.3     1  UNL1       -0.3112
      5 C          20.4649   72.1717   -1.0912 C.3     1  UNL1        0.1811
      6 C          21.3872   74.5661    1.4293 C.3     1  UNL1        0.2383
      7 C          22.7151   74.2350    0.7019 C.3     1  UNL1        0.1895
      8 O          23.5963   75.3598    0.7118 O.3     1  UNL1       -0.3779
      9 C          22.2301   73.9259   -0.7357 C.3     1  UNL1        0.1713
     10 C          20.7381   73.5826   -0.5641 C.3     1  UNL1        0.1764
     11 O          20.4434   73.6451    0.8404 O.3     1  UNL1       -0.3308
     12 O          22.3869   75.0730   -1.5726 O.3     1  UNL1       -0.3794
     13 H          24.4411   75.2018    0.2690 H       1  UNL1        0.2106
     14 H          23.3021   75.3691   -1.6679 H       1  UNL1        0.2105
     15 N          21.5136   74.3259    2.8685 N.ar    1  UNL1       -0.2551
     16 C          21.3957   73.0750    3.3482 C.ar    1  UNL1        0.3323
     17 N          21.5072   72.8251    4.6663 N.ar    1  UNL1       -0.2743
     18 C          21.7424   73.8331    5.5307 C.ar    1  UNL1        0.2626
     19 C          21.8698   75.1546    5.0394 C.ar    1  UNL1        0.0795
     20 C          21.7576   75.3756    3.7127 C.ar    1  UNL1        0.0869
     21 O          21.1837   72.1563    2.5804 O.2     1  UNL1       -0.2464
     22 O          21.8439   73.6081    6.7239 O.2     1  UNL1       -0.2670
     23 H          21.4183   71.9174    4.9955 H       1  UNL1        0.1734
     24 O          21.0332   71.4578   -4.0142 O.3     1  UNL1       -0.2703
     25 P          21.3127   72.7024   -4.9970 P.3     1  UNL1        0.2208
     26 O          21.1676   74.0789   -4.1736 O.3     1  UNL1       -0.4371
     27 O          22.6821   72.5993   -5.5470 O.2     1  UNL1       -0.5170
     28 O          20.2465   72.6833   -6.2035 O.3     1  UNL1       -0.2865
     29 C          20.6112   72.8975   -7.5682 C.3     1  UNL1        0.2611
     30 C          20.0021   74.2128   -8.0597 C.3     1  UNL1        0.1582
     31 C          18.4749   74.1133   -7.9966 C.3     1  UNL1        0.1625
     32 C          18.0173   72.9140   -8.8313 C.3     1  UNL1        0.1686
     33 C          18.7031   71.6484   -8.3098 C.3     1  UNL1        0.1760
     34 O          17.8965   75.3099   -8.5228 O.3     1  UNL1       -0.3801
     35 O          18.3724   73.1210  -10.1996 O.3     1  UNL1       -0.3794
     36 O          20.1207   71.8188   -8.3669 O.3     1  UNL1       -0.3263
     37 H          16.9295   75.3162   -8.5129 H       1  UNL1        0.2105
     38 H          18.1129   72.3979  -10.7877 H       1  UNL1        0.2105
     39 C          20.7973   76.4956   -7.7526 C.2     1  UNL1        0.2231
     40 C          21.2646   77.6265   -6.8744 C.3     1  UNL1        0.0946
     41 N          20.4569   75.3123   -7.2048 N.am    1  UNL1       -0.2994
     42 O          20.7271   76.6495   -8.9541 O.2     1  UNL1       -0.2751
     43 H          20.5138   75.1885   -6.2444 H       1  UNL1        0.1496
     44 C          18.2972   70.4547   -9.1763 C.3     1  UNL1        0.1693
     45 O          18.9939   70.5112  -10.4228 O.3     1  UNL1       -0.3794
     46 H          18.7849   69.7835  -11.0242 H       1  UNL1        0.2105
@<TRIPOS>BOND
     1    29    30    1
     2    30    41    1
     3    30    31    1
     4    31    34    1
     5    31    32    1
     6    32    35    1
     7    32    33    1
     8    33    36    1
     9    33    44    1
    10    39    40    1
    11    39    42    2
    12    39    41   am
    13    41    43    1
    14    29    28    1
    15    34    37    1
    16    35    38    1
    17    29    36    1
    18    44    45    1
    19    45    46    1
    20    15     6    1
    21    15    16   ar
    22    16    21    2
    23    16    17   ar
    24    17    23    1
    25    17    18   ar
    26    18    19   ar
    27    19    20   ar
    28    15    20   ar
    29    18    22    2
    30     6     7    1
    31     6    11    1
    32     7     9    1
    33     7     8    1
    34     8    13    1
    35     9    10    1
    36     9    12    1
    37    10     5    1
    38    10    11    1
    39    12    14    1
    40     5     4    1
    41     4     1    1
    42     1     2    1
    43     1    24    1
    44     1     3    2
    45    24    25    1
    46    28    25    1
    47    25    26    1
    48    25    27    2
@<TRIPOS>MOLECULE
UD2
 46 48 0 0 0
SMALL
GASTEIGER

@<TRIPOS>ATOM
      1 P          22.6936   71.9494   -3.3119 P.3     1  UNL1        0.2189
      2 O          23.4313   73.2150   -2.6444 O.3     1  UNL1       -0.4371
      3 O          23.5760   70.7645   -3.2315 O.2     1  UNL1       -0.5170
      4 O          21.3213   71.6511   -2.5236 O.3     1  UNL1       -0.3112
      5 C          21.1019   72.0464   -1.1682 C.3     1  UNL1        0.1811
      6 C          23.1185   72.1793    1.8071 C.3     1  UNL1        0.2383
      7 C          22.6465   70.7056    1.7217 C.3     1  UNL1        0.1895
      8 O          23.6184   69.8250    2.2890 O.3     1  UNL1       -0.3779
      9 C          22.5307   70.4891    0.1929 C.3     1  UNL1        0.1713
     10 C          22.4077   71.9137   -0.3808 C.3     1  UNL1        0.1764
     11 O          22.4029   72.8236    0.7307 O.3     1  UNL1       -0.3308
     12 O          23.7030   69.8463   -0.3101 O.3     1  UNL1       -0.3794
     13 H          23.3684   68.8916    2.2598 H       1  UNL1        0.2106
     14 H          23.8619   68.9686    0.0626 H       1  UNL1        0.2105
     15 N          22.7481   72.7657    3.0970 N.ar    1  UNL1       -0.2551
     16 C          21.4983   72.6058    3.5674 C.ar    1  UNL1        0.3323
     17 N          21.1302   73.1339    4.7497 N.ar    1  UNL1       -0.2743
     18 C          22.0169   73.8345    5.4856 C.ar    1  UNL1        0.2626
     19 C          23.3362   74.0097    5.0031 C.ar    1  UNL1        0.0795
     20 C          23.6789   73.4657    3.8164 C.ar    1  UNL1        0.0869
     21 O          20.6884   71.9763    2.9146 O.2     1  UNL1       -0.2464
     22 O          21.6851   74.3127    6.5561 O.2     1  UNL1       -0.2670
     23 H          20.2247   73.0102    5.0736 H       1  UNL1        0.1734
     24 O          22.3660   72.2714   -4.8553 O.3     1  UNL1       -0.2703
     25 P          21.2904   73.2126   -5.5970 P.3     1  UNL1        0.2208
     26 O          21.0064   74.5162   -4.6949 O.3     1  UNL1       -0.4371
     27 O          21.8236   73.6302   -6.9121 O.2     1  UNL1       -0.5170
     28 O          19.9186   72.3964   -5.8082 O.3     1  UNL1       -0.2865
     29 C          18.7843   72.9420   -6.4843 C.3     1  UNL1        0.2611
     30 C          17.5182   72.2119   -6.0298 C.3     1  UNL1        0.1582
     31 C          17.6244   70.7338   -6.4177 C.3     1  UNL1        0.1625
     32 C          17.8442   70.6284   -7.9293 C.3     1  UNL1        0.1686
     33 C          19.0982   71.4197   -8.3107 C.3     1  UNL1        0.1760
     34 O          16.4152   70.0592   -6.0628 O.3     1  UNL1       -0.3801
     35 O          16.7123   71.1664   -8.6153 O.3     1  UNL1       -0.3794
     36 O          18.9469   72.7784   -7.8947 O.3     1  UNL1       -0.3263
     37 H          16.4129   69.1168   -6.2796 H       1  UNL1        0.2105
     38 H          16.7834   71.1329   -9.5796 H       1  UNL1        0.2105
     39 C          17.8706   71.3615   -3.7736 C.2     1  UNL1        0.2231
     40 C          17.7311   71.4801   -2.2786 C.3     1  UNL1        0.0946
     41 N          17.3818   72.3279   -4.5757 N.am    1  UNL1       -0.2994
     42 O          18.4234   70.3954   -4.2566 O.2     1  UNL1       -0.2751
     43 H          16.9390   73.1000   -4.1899 H       1  UNL1        0.1496
     44 C          19.2913   71.3689   -9.8275 C.3     1  UNL1        0.1693
     45 O          18.6333   70.2146  -10.3538 O.3     1  UNL1       -0.3794
     46 H          18.7143   70.1179  -11.3125 H       1  UNL1        0.2105
@<TRIPOS>BOND
     1    29    30    1
     2    30    41    1
     3    30    31    1
     4    31    34    1
     5    31    32    1
     6    32    35    1
     7    32    33    1
     8    33    36    1
     9    33    44    1
    10    39    40    1
    11    39    42    2
    12    39    41   am
    13    41    43    1
    14    29    28    1
    15    34    37    1
    16    35    38    1
    17    29    36    1
    18    44    45    1
    19    45    46    1
    20    15     6    1
    21    15    16   ar
    22    16    21    2
    23    16    17   ar
    24    17    23    1
    25    17    18   ar
    26    18    19   ar
    27    19    20   ar
    28    15    20   ar
    29    18    22    2
    30     6     7    1
    31     6    11    1
    32     7     9    1
    33     7     8    1
    34     8    13    1
    35     9    10    1
    36     9    12    1
    37    10     5    1
    38    10    11    1
    39    12    14    1
    40     5     4    1
    41     4     1    1
    42     1     2    1
    43     1    24    1
    44     1     3    2
    45    24    25    1
    46    28    25    1
    47    25    26    1
    48    25    27    2
@<TRIPOS>MOLECULE
UD2
 46 48 0 0 0
SMALL
GASTEIGER

@<TRIPOS>ATOM
      1 P          22.6262   73.8370   -3.9512 P.3     1  UNL1        0.2189
      2 O          23.1559   75.2338   -3.3513 O.3     1  UNL1       -0.4371
      3 O          23.7709   72.9235   -4.1605 O.2     1  UNL1       -0.5170
      4 O          21.5880   73.1685   -2.9173 O.3     1  UNL1       -0.3112
      5 C          21.4995   73.5561   -1.5449 C.3     1  UNL1        0.1811
      6 C          23.1162   72.4466    1.4704 C.3     1  UNL1        0.2383
      7 C          22.2606   71.2358    1.0188 C.3     1  UNL1        0.1895
      8 O          22.8728   70.0049    1.4087 O.3     1  UNL1       -0.3779
      9 C          22.2648   71.3911   -0.5218 C.3     1  UNL1        0.1713
     10 C          22.6155   72.8739   -0.7498 C.3     1  UNL1        0.1764
     11 O          22.7400   73.4878    0.5430 O.3     1  UNL1       -0.3308
     12 O          23.2578   70.5463   -1.1057 O.3     1  UNL1       -0.3794
     13 H          22.3747   69.2181    1.1490 H       1  UNL1        0.2106
     14 H          23.1187   69.6037   -0.9426 H       1  UNL1        0.2105
     15 N          22.7807   72.8320    2.8430 N.ar    1  UNL1       -0.2551
     16 C          21.5892   72.4837    3.3606 C.ar    1  UNL1        0.3323
     17 N          21.2543   72.8245    4.6191 N.ar    1  UNL1       -0.2743
     18 C          22.1161   73.5239    5.3851 C.ar    1  UNL1        0.2626
     19 C          23.3742   73.8962    4.8533 C.ar    1  UNL1        0.0795
     20 C          23.6853   73.5375    3.5900 C.ar    1  UNL1        0.0869
     21 O          20.8023   71.8529    2.6815 O.2     1  UNL1       -0.2464
     22 O          21.8144   73.8327    6.5244 O.2     1  UNL1       -0.2670
     23 H          20.3906   72.5664    4.9764 H       1  UNL1        0.1734
     24 O          21.8868   74.1023   -5.3570 O.3     1  UNL1       -0.2703
     25 P          21.1108   73.1601   -6.4072 P.3     1  UNL1        0.2208
     26 O          20.3683   74.0771   -7.5034 O.3     1  UNL1       -0.4371
     27 O          22.0810   72.2717   -7.0838 O.2     1  UNL1       -0.5170
     28 O          20.0211   72.2691   -5.6254 O.3     1  UNL1       -0.2865
     29 C          19.2737   71.2257   -6.2530 C.3     1  UNL1        0.2611
     30 C          17.7905   71.6027   -6.2773 C.3     1  UNL1        0.1582
     31 C          17.2831   71.7373   -4.8383 C.3     1  UNL1        0.1625
     32 C          17.5359   70.4232   -4.0942 C.3     1  UNL1        0.1686
     33 C          19.0293   70.0916   -4.1541 C.3     1  UNL1        0.1760
     34 O          15.8814   72.0172   -4.8507 O.3     1  UNL1       -0.3801
     35 O          16.7879   69.3737   -4.7109 O.3     1  UNL1       -0.3794
     36 O          19.4434   70.0111   -5.5194 O.3     1  UNL1       -0.3263
     37 H          15.4927   72.1160   -3.9707 H       1  UNL1        0.2105
     38 H          16.9011   68.5097   -4.2905 H       1  UNL1        0.2105
     39 C          16.5953   73.0459   -7.8351 C.2     1  UNL1        0.2231
     40 C          16.4206   74.3572   -8.5551 C.3     1  UNL1        0.0946
     41 N          17.6213   72.8785   -6.9775 N.am    1  UNL1       -0.2994
     42 O          15.8121   72.1393   -8.0270 O.2     1  UNL1       -0.2751
     43 H          18.2483   73.6028   -6.8246 H       1  UNL1        0.1496
     44 C          19.2815   68.7496   -3.4643 C.3     1  UNL1        0.1693
     45 O          18.3119   68.5536   -2.4329 O.3     1  UNL1       -0.3794
     46 H          18.4113   67.7207   -1.9519 H       1  UNL1        0.2105
@<TRIPOS>BOND
     1    29    30    1
     2    30    41    1
     3    30    31    1
     4    31    34    1
     5    31    32    1
     6    32    35    1
     7    32    33    1
     8    33    36    1
     9    33    44    1
    10    39    40    1
    11    39    42    2
    12    39    41   am
    13    41    43    1
    14    29    28    1
    15    34    37    1
    16    35    38    1
    17    29    36    1
    18    44    45    1
    19    45    46    1
    20    15     6    1
    21    15    16   ar
    22    16    21    2
    23    16    17   ar
    24    17    23    1
    25    17    18   ar
    26    18    19   ar
    27    19    20   ar
    28    15    20   ar
    29    18    22    2
    30     6     7    1
    31     6    11    1
    32     7     9    1
    33     7     8    1
    34     8    13    1
    35     9    10    1
    36     9    12    1
    37    10     5    1
    38    10    11    1
    39    12    14    1
    40     5     4    1
    41     4     1    1
    42     1     2    1
    43     1    24    1
    44     1     3    2
    45    24    25    1
    46    28    25    1
    47    25    26    1
    48    25    27    2
@<TRIPOS>MOLECULE
UD2
 46 48 0 0 0
SMALL
GASTEIGER

@<TRIPOS>ATOM
      1 P          19.9792   70.2702   -2.5854 P.3     1  UNL1        0.2189
      2 O          18.9987   69.0711   -2.1468 O.3     1  UNL1       -0.4371
      3 O          21.0611   69.7356   -3.4413 O.2     1  UNL1       -0.5170
      4 O          19.1421   71.3749   -3.4056 O.3     1  UNL1       -0.3112
      5 C          17.7463   71.2452   -3.6817 C.3     1  UNL1        0.1811
      6 C          18.6351   72.5797   -6.9013 C.3     1  UNL1        0.2383
      7 C          18.4315   71.0636   -7.1505 C.3     1  UNL1        0.1895
      8 O          17.9581   70.8239   -8.4773 O.3     1  UNL1       -0.3779
      9 C          17.3481   70.7046   -6.1042 C.3     1  UNL1        0.1713
     10 C          17.4427   71.8346   -5.0613 C.3     1  UNL1        0.1764
     11 O          18.5120   72.7035   -5.4677 O.3     1  UNL1       -0.3308
     12 O          16.0547   70.6897   -6.7104 O.3     1  UNL1       -0.3794
     13 H          17.8159   69.8898   -8.6816 H       1  UNL1        0.2106
     14 H          15.9575   70.0360   -7.4158 H       1  UNL1        0.2105
     15 N          19.9663   73.0009   -7.3434 N.ar    1  UNL1       -0.2551
     16 C          20.1165   73.5779   -8.5490 C.ar    1  UNL1        0.3323
     17 N          21.3282   73.9747   -8.9810 N.ar    1  UNL1       -0.2743
     18 C          22.4166   73.7995   -8.2043 C.ar    1  UNL1        0.2626
     19 C          22.2729   73.1944   -6.9326 C.ar    1  UNL1        0.0795
     20 C          21.0456   72.8102   -6.5231 C.ar    1  UNL1        0.0869
     21 O          19.1439   73.7424   -9.2598 O.2     1  UNL1       -0.2464
     22 O          23.5137   74.1585   -8.5941 O.2     1  UNL1       -0.2670
     23 H          21.4189   74.3879   -9.8535 H       1  UNL1        0.1734
     24 O          20.6187   70.9484   -1.2723 O.3     1  UNL1       -0.2703
     25 P          21.9295   70.6502   -0.3857 P.3     1  UNL1        0.2208
     26 O          21.7146   69.2891    0.4480 O.3     1  UNL1       -0.4371
     27 O          23.1033   70.5037   -1.2740 O.2     1  UNL1       -0.5170
     28 O          22.1767   71.8714    0.6341 O.3     1  UNL1       -0.2865
     29 C          21.1242   72.7097    1.1145 C.3     1  UNL1        0.2611
     30 C          21.3856   74.1553    0.6851 C.3     1  UNL1        0.1582
     31 C          22.6926   74.6393    1.3208 C.3     1  UNL1        0.1625
     32 C          22.5920   74.4947    2.8418 C.3     1  UNL1        0.1686
     33 C          22.2841   73.0356    3.1881 C.3     1  UNL1        0.1760
     34 O          22.9071   76.0120    0.9846 O.3     1  UNL1       -0.3801
     35 O          21.5454   75.3340    3.3332 O.3     1  UNL1       -0.3794
     36 O          21.0732   72.6394    2.5410 O.3     1  UNL1       -0.3263
     37 H          23.7193   76.3847    1.3542 H       1  UNL1        0.2105
     38 H          21.4244   75.2922    4.2922 H       1  UNL1        0.2105
     39 C          20.3939   74.3891   -1.5284 C.2     1  UNL1        0.2231
     40 C          20.5084   74.4555   -3.0288 C.3     1  UNL1        0.0946
     41 N          21.4978   74.2196   -0.7743 N.am    1  UNL1       -0.2994
     42 O          19.3072   74.4882   -0.9978 O.2     1  UNL1       -0.2751
     43 H          22.3667   74.1393   -1.1982 H       1  UNL1        0.1496
     44 C          22.1230   72.8943    4.7029 C.3     1  UNL1        0.1693
     45 O          20.7584   73.1228    5.0609 O.3     1  UNL1       -0.3794
     46 H          20.5823   73.0493    6.0089 H       1  UNL1        0.2105
@<TRIPOS>BOND
     1    29    30    1
     2    30    41    1
     3    30    31    1
     4    31    34    1
     5    31    32    1
     6    32    35    1
     7    32    33    1
     8    33    36    1
     9    33    44    1
    10    39    40    1
    11    39    42    2
    12    39    41   am
    13    41    43    1
    14    29    28    1
    15    34    37    1
    16    35    38    1
    17    29    36    1
    18    44    45    1
    19    45    46    1
    20    15     6    1
    21    15    16   ar
    22    16    21    2
    23    16    17   ar
    24    17    23    1
    25    17    18   ar
    26    18    19   ar
    27    19    20   ar
    28    15    20   ar
    29    18    22    2
    30     6     7    1
    31     6    11    1
    32     7     9    1
    33     7     8    1
    34     8    13    1
    35     9    10    1
    36     9    12    1
    37    10     5    1
    38    10    11    1
    39    12    14    1
    40     5     4    1
    41     4     1    1
    42     1     2    1
    43     1    24    1
    44     1     3    2
    45    24    25    1
    46    28    25    1
    47    25    26    1
    48    25    27    2
@<TRIPOS>MOLECULE
UD2
 46 48 0 0 0
SMALL
GASTEIGER

@<TRIPOS>ATOM
      1 P          20.5393   70.1450   -2.4320 P.3     1  UNL1        0.2189
      2 O          20.2203   68.7930   -3.2455 O.3     1  UNL1       -0.4371
      3 O          19.2734   70.8452   -2.1220 O.2     1  UNL1       -0.5170
      4 O          21.3001   69.7791   -1.0606 O.3     1  UNL1       -0.3112
      5 C          22.2882   70.6256   -0.4702 C.3     1  UNL1        0.1811
      6 C          21.4473   73.5006    1.5208 C.3     1  UNL1        0.2383
      7 C          22.8311   73.8401    0.9109 C.3     1  UNL1        0.1895
      8 O          22.9680   75.2480    0.7091 O.3     1  UNL1       -0.3779
      9 C          22.7829   73.0901   -0.4428 C.3     1  UNL1        0.1713
     10 C          21.6952   72.0179   -0.2407 C.3     1  UNL1        0.1764
     11 O          21.2273   72.1329    1.1126 O.3     1  UNL1       -0.3308
     12 O          22.4157   73.9836   -1.4953 O.3     1  UNL1       -0.3794
     13 H          23.8177   75.5105    0.3298 H       1  UNL1        0.2106
     14 H          23.0361   74.7131   -1.6273 H       1  UNL1        0.2105
     15 N          21.4880   73.6034    2.9812 N.ar    1  UNL1       -0.2551
     16 C          21.9901   72.5885    3.7069 C.ar    1  UNL1        0.3323
     17 N          22.0396   72.6557    5.0505 N.ar    1  UNL1       -0.2743
     18 C          21.5847   73.7509    5.6925 C.ar    1  UNL1        0.2626
     19 C          21.0545   74.8271    4.9410 C.ar    1  UNL1        0.0795
     20 C          21.0210   74.7344    3.5950 C.ar    1  UNL1        0.0869
     21 O          22.4040   71.5949    3.1414 O.2     1  UNL1       -0.2464
     22 O          21.6293   73.8131    6.9085 O.2     1  UNL1       -0.2670
     23 H          22.4036   71.9144    5.5586 H       1  UNL1        0.1734
     24 O          21.4769   71.1013   -3.3263 O.3     1  UNL1       -0.2703
     25 P          21.1866   72.2163   -4.4513 P.3     1  UNL1        0.2208
     26 O          20.6225   73.5517   -3.7497 O.3     1  UNL1       -0.4371
     27 O          22.4407   72.5298   -5.1706 O.2     1  UNL1       -0.5170
     28 O          20.0953   71.6553   -5.4938 O.3     1  UNL1       -0.2865
     29 C          19.1102   72.4855   -6.1117 C.3     1  UNL1        0.2611
     30 C          17.7162   71.9179   -5.8339 C.3     1  UNL1        0.1582
     31 C          17.6080   70.5238   -6.4592 C.3     1  UNL1        0.1625
     32 C          17.9060   70.6237   -7.9578 C.3     1  UNL1        0.1686
     33 C          19.2932   71.2412   -8.1537 C.3     1  UNL1        0.1760
     34 O          16.2854   70.0163   -6.2681 O.3     1  UNL1       -0.3801
     35 O          16.9227   71.4477   -8.5865 O.3     1  UNL1       -0.3794
     36 O          19.3359   72.5225   -7.5223 O.3     1  UNL1       -0.3263
     37 H          16.1455   69.1344   -6.6394 H       1  UNL1        0.2105
     38 H          17.0501   71.5559   -9.5394 H       1  UNL1        0.2105
     39 C          16.2993   72.1127   -3.8610 C.2     1  UNL1        0.2231
     40 C          16.0821   72.0154   -2.3738 C.3     1  UNL1        0.0946
     41 N          17.5057   71.8233   -4.3871 N.am    1  UNL1       -0.2994
     42 O          15.3877   72.4518   -4.5864 O.2     1  UNL1       -0.2751
     43 H          18.2351   71.5530   -3.8074 H       1  UNL1        0.1496
     44 C          19.5741   71.3996   -9.6492 C.3     1  UNL1        0.1693
     45 O          18.7890   70.4586  -10.3843 O.3     1  UNL1       -0.3794
     46 H          18.9165   70.5021  -11.3419 H       1  UNL1        0.2105
@<TRIPOS>BOND
     1    29    30    1
     2    30    41    1
     3    30    31    1
     4    31    34    1
     5    31    32    1
     6    32    35    1
     7    32    33    1
     8    33    36    1
     9    33    44    1
    10    39    40    1
    11    39    42    2
    12    39    41   am
    13    41    43    1
    14    29    28    1
    15    34    37    1
    16    35    38    1
    17    29    36    1
    18    44    45    1
    19    45    46    1
    20    15     6    1
    21    15    16   ar
    22    16    21    2
    23    16    17   ar
    24    17    23    1
    25    17    18   ar
    26    18    19   ar
    27    19    20   ar
    28    15    20   ar
    29    18    22    2
    30     6     7    1
    31     6    11    1
    32     7     9    1
    33     7     8    1
    34     8    13    1
    35     9    10    1
    36     9    12    1
    37    10     5    1
    38    10    11    1
    39    12    14    1
    40     5     4    1
    41     4     1    1
    42     1     2    1
    43     1    24    1
    44     1     3    2
    45    24    25    1
    46    28    25    1
    47    25    26    1
    48    25    27    2
@<TRIPOS>MOLECULE
UD2
 46 48 0 0 0
SMALL
GASTEIGER

@<TRIPOS>ATOM
      1 P          23.0220   72.2686   -3.2779 P.3     1  UNL1        0.2189
      2 O          23.8120   72.9307   -4.5144 O.3     1  UNL1       -0.4371
      3 O          23.5184   70.8929   -3.0544 O.2     1  UNL1       -0.5170
      4 O          23.2661   73.1493   -1.9519 O.3     1  UNL1       -0.3112
      5 C          22.2372   73.4193   -0.9979 C.3     1  UNL1        0.1811
      6 C          22.6427   73.3616    2.5754 C.3     1  UNL1        0.2383
      7 C          21.2057   72.8320    2.3377 C.3     1  UNL1        0.1895
      8 O          20.8314   71.8991    3.3532 O.3     1  UNL1       -0.3779
      9 C          21.3410   72.1292    0.9647 C.3     1  UNL1        0.1713
     10 C          22.5968   72.7651    0.3384 C.3     1  UNL1        0.1764
     11 O          23.0757   73.7605    1.2567 O.3     1  UNL1       -0.3308
     12 O          21.5259   70.7235    1.1398 O.3     1  UNL1       -0.3794
     13 H          19.9400   71.5398    3.2484 H       1  UNL1        0.2106
     14 H          20.7897   70.2815    1.5836 H       1  UNL1        0.2105
     15 N          22.6253   74.5112    3.4828 N.ar    1  UNL1       -0.2551
     16 C          23.6476   74.7028    4.3353 C.ar    1  UNL1        0.3323
     17 N          23.6578   75.7505    5.1805 N.ar    1  UNL1       -0.2743
     18 C          22.6360   76.6306    5.1829 C.ar    1  UNL1        0.2626
     19 C          21.5538   76.4417    4.2900 C.ar    1  UNL1        0.0795
     20 C          21.5718   75.3848    3.4508 C.ar    1  UNL1        0.0869
     21 O          24.5758   73.9173    4.3440 O.2     1  UNL1       -0.2464
     22 O          22.6443   77.5795    5.9471 O.2     1  UNL1       -0.2670
     23 H          24.4022   75.8732    5.7896 H       1  UNL1        0.1734
     24 O          21.4467   72.2239   -3.6092 O.3     1  UNL1       -0.2703
     25 P          20.2941   71.1168   -3.4128 P.3     1  UNL1        0.2208
     26 O          20.9662   69.6580   -3.2955 O.3     1  UNL1       -0.4371
     27 O          19.5336   71.4097   -2.1782 O.2     1  UNL1       -0.5170
     28 O          19.2980   71.1491   -4.6775 O.3     1  UNL1       -0.2865
     29 C          19.2147   72.2579   -5.5747 C.3     1  UNL1        0.2611
     30 C          17.7452   72.5669   -5.8706 C.3     1  UNL1        0.1582
     31 C          17.1079   71.3587   -6.5639 C.3     1  UNL1        0.1625
     32 C          17.9001   71.0358   -7.8337 C.3     1  UNL1        0.1686
     33 C          19.3641   70.7856   -7.4620 C.3     1  UNL1        0.1760
     34 O          15.7554   71.6657   -6.9099 O.3     1  UNL1       -0.3801
     35 O          17.8185   72.1367   -8.7406 O.3     1  UNL1       -0.3794
     36 O          19.8873   71.9352   -6.7937 O.3     1  UNL1       -0.3263
     37 H          15.2895   70.9432   -7.3528 H       1  UNL1        0.2105
     38 H          18.2996   72.0013   -9.5690 H       1  UNL1        0.2105
     39 C          16.4560   71.8316   -3.9380 C.2     1  UNL1        0.2231
     40 C          15.7313   72.1108   -2.6475 C.3     1  UNL1        0.0946
     41 N          17.0402   72.8394   -4.6155 N.am    1  UNL1       -0.2994
     42 O          16.5142   70.6986   -4.3683 O.2     1  UNL1       -0.2751
     43 H          16.9930   73.7455   -4.2724 H       1  UNL1        0.1496
     44 C          20.1745   70.5209   -8.7323 C.3     1  UNL1        0.1693
     45 O          20.8563   71.7153   -9.1209 O.3     1  UNL1       -0.3794
     46 H          21.3911   71.6210   -9.9209 H       1  UNL1        0.2105
@<TRIPOS>BOND
     1    29    30    1
     2    30    41    1
     3    30    31    1
     4    31    34    1
     5    31    32    1
     6    32    35    1
     7    32    33    1
     8    33    36    1
     9    33    44    1
    10    39    40    1
    11    39    42    2
    12    39    41   am
    13    41    43    1
    14    29    28    1
    15    34    37    1
    16    35    38    1
    17    29    36    1
    18    44    45    1
    19    45    46    1
    20    15     6    1
    21    15    16   ar
    22    16    21    2
    23    16    17   ar
    24    17    23    1
    25    17    18   ar
    26    18    19   ar
    27    19    20   ar
    28    15    20   ar
    29    18    22    2
    30     6     7    1
    31     6    11    1
    32     7     9    1
    33     7     8    1
    34     8    13    1
    35     9    10    1
    36     9    12    1
    37    10     5    1
    38    10    11    1
    39    12    14    1
    40     5     4    1
    41     4     1    1
    42     1     2    1
    43     1    24    1
    44     1     3    2
    45    24    25    1
    46    28    25    1
    47    25    26    1
    48    25    27    2
