@<TRIPOS>MOLECULE
UD2
 46 48 0 0 0
SMALL
GASTEIGER

@<TRIPOS>ATOM
      1 P          21.8261   70.7701   -2.7744 P.3     1  UNL1        0.2189
      2 O          21.2272   69.2820   -2.9090 O.3     1  UNL1       -0.4371
      3 O          23.2198   70.7884   -3.2707 O.2     1  UNL1       -0.5170
      4 O          20.9328   71.7887   -3.6452 O.3     1  UNL1       -0.3112
      5 C          19.8936   72.5897   -3.0795 C.3     1  UNL1        0.1811
      6 C          17.8911   71.3743   -5.8089 C.3     1  UNL1        0.2383
      7 C          18.0103   70.1665   -4.8450 C.3     1  UNL1        0.1895
      8 O          16.8471   69.3397   -4.9170 O.3     1  UNL1       -0.3779
      9 C          18.1099   70.8606   -3.4645 C.3     1  UNL1        0.1713
     10 C          18.5738   72.2920   -3.7954 C.3     1  UNL1        0.1764
     11 O          18.7625   72.3626   -5.2177 O.3     1  UNL1       -0.3308
     12 O          16.8330   70.8836   -2.8244 O.3     1  UNL1       -0.3794
     13 H          16.8744   68.5702   -4.3324 H       1  UNL1        0.2106
     14 H          16.4659   70.0074   -2.6458 H       1  UNL1        0.2105
     15 N          18.3559   71.0120   -7.1497 N.ar    1  UNL1       -0.2551
     16 C          17.4682   70.6110   -8.0770 C.ar    1  UNL1        0.3323
     17 N          17.8672   70.2719   -9.3172 N.ar    1  UNL1       -0.2743
     18 C          19.1726   70.3317   -9.6502 C.ar    1  UNL1        0.2626
     19 C          20.1179   70.7530   -8.6842 C.ar    1  UNL1        0.0795
     20 C          19.6892   71.0911   -7.4499 C.ar    1  UNL1        0.0869
     21 O          16.2879   70.5525   -7.7908 O.2     1  UNL1       -0.2464
     22 O          19.5351   70.0254  -10.7724 O.2     1  UNL1       -0.2670
     23 H          17.2141   69.9838   -9.9733 H       1  UNL1        0.1734
     24 O          21.8004   71.2215   -1.2288 O.3     1  UNL1       -0.2703
     25 P          22.5179   70.6783    0.1065 P.3     1  UNL1        0.2208
     26 O          21.6261   69.5043    0.7547 O.3     1  UNL1       -0.4371
     27 O          23.8571   70.1494   -0.2330 O.2     1  UNL1       -0.5170
     28 O          22.6686   71.8840    1.1631 O.3     1  UNL1       -0.2865
     29 C          21.5642   72.6767    1.6023 C.3     1  UNL1        0.2611
     30 C          21.7754   74.1305    1.1727 C.3     1  UNL1        0.1582
     31 C          23.0372   74.6755    1.8489 C.3     1  UNL1        0.1625
     32 C          22.8917   74.5340    3.3666 C.3     1  UNL1        0.1686
     33 C          22.6374   73.0643    3.7117 C.3     1  UNL1        0.1760
     34 O          23.2017   76.0547    1.5114 O.3     1  UNL1       -0.3801
     35 O          21.7927   75.3280    3.8171 O.3     1  UNL1       -0.3794
     36 O          21.4680   72.6112    3.0267 O.3     1  UNL1       -0.3263
     37 H          23.9835   76.4652    1.9057 H       1  UNL1        0.2105
     38 H          21.6411   75.2856    4.7717 H       1  UNL1        0.2105
     39 C          23.1672   74.2227   -0.8254 C.2     1  UNL1        0.2231
     40 C          23.3311   74.2862   -2.3213 C.3     1  UNL1        0.0946
     41 N          21.9341   74.1925   -0.2825 N.am    1  UNL1       -0.2994
     42 O          24.1456   74.1987   -0.1082 O.2     1  UNL1       -0.2751
     43 H          21.1516   74.2127   -0.8555 H       1  UNL1        0.1496
     44 C          22.4314   72.9234    5.2211 C.3     1  UNL1        0.1693
     45 O          21.0383   73.0235    5.5239 O.3     1  UNL1       -0.3794
     46 H          20.8332   72.9429    6.4654 H       1  UNL1        0.2105
@<TRIPOS>BOND
     1    29    30    1
     2    30    41    1
     3    30    31    1
     4    31    34    1
     5    31    32    1
     6    32    35    1
     7    32    33    1
     8    33    36    1
     9    33    44    1
    10    39    40    1
    11    39    42    2
    12    39    41   am
    13    41    43    1
    14    29    28    1
    15    34    37    1
    16    35    38    1
    17    29    36    1
    18    44    45    1
    19    45    46    1
    20    15     6    1
    21    15    16   ar
    22    16    21    2
    23    16    17   ar
    24    17    23    1
    25    17    18   ar
    26    18    19   ar
    27    19    20   ar
    28    15    20   ar
    29    18    22    2
    30     6     7    1
    31     6    11    1
    32     7     9    1
    33     7     8    1
    34     8    13    1
    35     9    10    1
    36     9    12    1
    37    10     5    1
    38    10    11    1
    39    12    14    1
    40     5     4    1
    41     4     1    1
    42     1     2    1
    43     1    24    1
    44     1     3    2
    45    24    25    1
    46    28    25    1
    47    25    26    1
    48    25    27    2
@<TRIPOS>MOLECULE
UD2
 46 48 0 0 0
SMALL
GASTEIGER

@<TRIPOS>ATOM
      1 P          21.9779   70.3251   -0.2811 P.3     1  UNL1        0.2189
      2 O          22.2139   68.8793    0.3864 O.3     1  UNL1       -0.4371
      3 O          23.2234   70.7734   -0.9418 O.2     1  UNL1       -0.5170
      4 O          20.7973   70.2260   -1.3720 O.3     1  UNL1       -0.3112
      5 C          20.9199   70.7416   -2.6989 C.3     1  UNL1        0.1811
      6 C          18.3838   71.0034   -5.2358 C.3     1  UNL1        0.2383
      7 C          18.1012   69.6473   -4.5407 C.3     1  UNL1        0.1895
      8 O          16.7059   69.3404   -4.5693 O.3     1  UNL1       -0.3779
      9 C          18.5776   69.9184   -3.0926 C.3     1  UNL1        0.1713
     10 C          19.5344   71.1181   -3.2295 C.3     1  UNL1        0.1764
     11 O          19.6175   71.4420   -4.6265 O.3     1  UNL1       -0.3308
     12 O          17.4686   70.2553   -2.2575 O.3     1  UNL1       -0.3794
     13 H          16.4788   68.5009   -4.1470 H       1  UNL1        0.2106
     14 H          16.8046   69.5566   -2.1832 H       1  UNL1        0.2105
     15 N          18.5578   70.8175   -6.6781 N.ar    1  UNL1       -0.2551
     16 C          17.4773   70.7389   -7.4750 C.ar    1  UNL1        0.3323
     17 N          17.6075   70.5679   -8.8039 N.ar    1  UNL1       -0.2743
     18 C          18.8328   70.4742   -9.3593 C.ar    1  UNL1        0.2626
     19 C          19.9789   70.5563   -8.5324 C.ar    1  UNL1        0.0795
     20 C          19.8189   70.7321   -7.2039 C.ar    1  UNL1        0.0869
     21 O          16.3663   70.8219   -6.9880 O.2     1  UNL1       -0.2464
     22 O          18.9521   70.3199  -10.5620 O.2     1  UNL1       -0.2670
     23 H          16.8179   70.5121   -9.3639 H       1  UNL1        0.1734
     24 O          21.5650   71.3828    0.8609 O.3     1  UNL1       -0.2703
     25 P          21.5642   72.9907    0.9477 P.3     1  UNL1        0.2208
     26 O          20.2182   73.5633    0.2736 O.3     1  UNL1       -0.4371
     27 O          21.6213   73.4085    2.3656 O.2     1  UNL1       -0.5170
     28 O          22.8459   73.5710    0.1646 O.3     1  UNL1       -0.2865
     29 C          23.2850   74.9251    0.2862 C.3     1  UNL1        0.2611
     30 C          22.9753   75.4385    1.6944 C.3     1  UNL1        0.1582
     31 C          21.4594   75.4198    1.9134 C.3     1  UNL1        0.1625
     32 C          20.7869   76.2635    0.8271 C.3     1  UNL1        0.1686
     33 C          21.1810   75.7181   -0.5481 C.3     1  UNL1        0.1760
     34 O          21.1561   75.9665    3.1989 O.3     1  UNL1       -0.3801
     35 O          21.2152   77.6215    0.9435 O.3     1  UNL1       -0.3794
     36 O          22.6043   75.7343   -0.6752 O.3     1  UNL1       -0.3263
     37 H          20.2115   75.9848    3.4052 H       1  UNL1        0.2105
     38 H          20.8282   78.2146    0.2844 H       1  UNL1        0.2105
     39 C          24.2618   75.1183    3.7389 C.2     1  UNL1        0.2231
     40 C          24.9285   74.2306    4.7568 C.3     1  UNL1        0.0946
     41 N          23.6238   74.5743    2.6839 N.am    1  UNL1       -0.2994
     42 O          24.2990   76.3242    3.8684 O.2     1  UNL1       -0.2751
     43 H          23.5947   73.6103    2.5795 H       1  UNL1        0.1496
     44 C          20.5612   76.5922   -1.6400 C.3     1  UNL1        0.1693
     45 O          21.4910   77.6075   -2.0234 O.3     1  UNL1       -0.3794
     46 H          21.1641   78.2005   -2.7138 H       1  UNL1        0.2105
@<TRIPOS>BOND
     1    29    30    1
     2    30    41    1
     3    30    31    1
     4    31    34    1
     5    31    32    1
     6    32    35    1
     7    32    33    1
     8    33    36    1
     9    33    44    1
    10    39    40    1
    11    39    42    2
    12    39    41   am
    13    41    43    1
    14    29    28    1
    15    34    37    1
    16    35    38    1
    17    29    36    1
    18    44    45    1
    19    45    46    1
    20    15     6    1
    21    15    16   ar
    22    16    21    2
    23    16    17   ar
    24    17    23    1
    25    17    18   ar
    26    18    19   ar
    27    19    20   ar
    28    15    20   ar
    29    18    22    2
    30     6     7    1
    31     6    11    1
    32     7     9    1
    33     7     8    1
    34     8    13    1
    35     9    10    1
    36     9    12    1
    37    10     5    1
    38    10    11    1
    39    12    14    1
    40     5     4    1
    41     4     1    1
    42     1     2    1
    43     1    24    1
    44     1     3    2
    45    24    25    1
    46    28    25    1
    47    25    26    1
    48    25    27    2
@<TRIPOS>MOLECULE
UD2
 46 48 0 0 0
SMALL
GASTEIGER

@<TRIPOS>ATOM
      1 P          21.9418   70.8687   -0.3636 P.3     1  UNL1        0.2189
      2 O          21.5337   69.5902    0.5254 O.3     1  UNL1       -0.4371
      3 O          23.0771   70.5159   -1.2442 O.2     1  UNL1       -0.5170
      4 O          20.6846   71.3199   -1.2633 O.3     1  UNL1       -0.3112
      5 C          20.7428   71.4156   -2.6877 C.3     1  UNL1        0.1811
      6 C          18.2372   71.1336   -5.2527 C.3     1  UNL1        0.2383
      7 C          18.1590   69.7911   -4.4822 C.3     1  UNL1        0.1895
      8 O          16.8294   69.2681   -4.5024 O.3     1  UNL1       -0.3779
      9 C          18.5643   70.2144   -3.0490 C.3     1  UNL1        0.1713
     10 C          19.3241   71.5398   -3.2486 C.3     1  UNL1        0.1764
     11 O          19.3775   71.7937   -4.6614 O.3     1  UNL1       -0.3308
     12 O          17.4033   70.4195   -2.2423 O.3     1  UNL1       -0.3794
     13 H          16.7296   68.4284   -4.0338 H       1  UNL1        0.2106
     14 H          16.8555   69.6307   -2.1323 H       1  UNL1        0.2105
     15 N          18.4609   70.8966   -6.6805 N.ar    1  UNL1       -0.2551
     16 C          17.4081   70.7598   -7.5062 C.ar    1  UNL1        0.3323
     17 N          17.5841   70.5410   -8.8228 N.ar    1  UNL1       -0.2743
     18 C          18.8281   70.4572   -9.3366 C.ar    1  UNL1        0.2626
     19 C          19.9454   70.6003   -8.4791 C.ar    1  UNL1        0.0795
     20 C          19.7395   70.8231   -7.1640 C.ar    1  UNL1        0.0869
     21 O          16.2807   70.8333   -7.0569 O.2     1  UNL1       -0.2464
     22 O          18.9888   70.2596  -10.5281 O.2     1  UNL1       -0.2670
     23 H          16.8141   70.4435   -9.4039 H       1  UNL1        0.1734
     24 O          22.3703   72.0817    0.6052 O.3     1  UNL1       -0.2703
     25 P          21.6538   72.8386    1.8326 P.3     1  UNL1        0.2208
     26 O          20.4708   73.7745    1.2682 O.3     1  UNL1       -0.4371
     27 O          21.0890   71.8399    2.7664 O.2     1  UNL1       -0.5170
     28 O          22.7343   73.7472    2.6070 O.3     1  UNL1       -0.2865
     29 C          23.0850   73.5423    3.9767 C.3     1  UNL1        0.2611
     30 C          22.2121   74.4307    4.8664 C.3     1  UNL1        0.1582
     31 C          22.4857   75.9001    4.5310 C.3     1  UNL1        0.1625
     32 C          23.9790   76.1847    4.7135 C.3     1  UNL1        0.1686
     33 C          24.7840   75.2285    3.8294 C.3     1  UNL1        0.1760
     34 O          21.7291   76.7384    5.4075 O.3     1  UNL1       -0.3801
     35 O          24.3391   75.9881    6.0820 O.3     1  UNL1       -0.3794
     36 O          24.4600   73.8794    4.1715 O.3     1  UNL1       -0.3263
     37 H          21.8536   77.6845    5.2508 H       1  UNL1        0.2105
     38 H          25.2739   76.1506    6.2707 H       1  UNL1        0.2105
     39 C          19.9407   74.0442    5.6595 C.2     1  UNL1        0.2231
     40 C          18.4880   73.7333    5.4114 C.3     1  UNL1        0.0946
     41 N          20.7992   74.1280    4.6241 N.am    1  UNL1       -0.2994
     42 O          20.3388   74.2194    6.7923 O.2     1  UNL1       -0.2751
     43 H          20.4815   73.9871    3.7185 H       1  UNL1        0.1496
     44 C          26.2790   75.4662    4.0508 C.3     1  UNL1        0.1693
     45 O          26.8899   75.8448    2.8155 O.3     1  UNL1       -0.3794
     46 H          27.8400   76.0118    2.8809 H       1  UNL1        0.2105
@<TRIPOS>BOND
     1    29    30    1
     2    30    41    1
     3    30    31    1
     4    31    34    1
     5    31    32    1
     6    32    35    1
     7    32    33    1
     8    33    36    1
     9    33    44    1
    10    39    40    1
    11    39    42    2
    12    39    41   am
    13    41    43    1
    14    29    28    1
    15    34    37    1
    16    35    38    1
    17    29    36    1
    18    44    45    1
    19    45    46    1
    20    15     6    1
    21    15    16   ar
    22    16    21    2
    23    16    17   ar
    24    17    23    1
    25    17    18   ar
    26    18    19   ar
    27    19    20   ar
    28    15    20   ar
    29    18    22    2
    30     6     7    1
    31     6    11    1
    32     7     9    1
    33     7     8    1
    34     8    13    1
    35     9    10    1
    36     9    12    1
    37    10     5    1
    38    10    11    1
    39    12    14    1
    40     5     4    1
    41     4     1    1
    42     1     2    1
    43     1    24    1
    44     1     3    2
    45    24    25    1
    46    28    25    1
    47    25    26    1
    48    25    27    2
@<TRIPOS>MOLECULE
UD2
 46 48 0 0 0
SMALL
GASTEIGER

@<TRIPOS>ATOM
      1 P          22.1416   73.9393   -6.2863 P.3     1  UNL1        0.2189
      2 O          22.7666   72.6880   -7.0832 O.3     1  UNL1       -0.4371
      3 O          23.0167   75.1201   -6.4565 O.2     1  UNL1       -0.5170
      4 O          20.6766   74.2685   -6.8686 O.3     1  UNL1       -0.3112
      5 C          20.3487   74.1591   -8.2549 C.3     1  UNL1        0.1811
      6 C          18.2226   71.4815   -7.1383 C.3     1  UNL1        0.2383
      7 C          17.3387   72.7503   -7.0340 C.3     1  UNL1        0.1895
      8 O          15.9628   72.4329   -7.2529 O.3     1  UNL1       -0.3779
      9 C          17.8926   73.6280   -8.1830 C.3     1  UNL1        0.1713
     10 C          19.3005   73.0600   -8.4455 C.3     1  UNL1        0.1764
     11 O          19.5202   72.0051   -7.4956 O.3     1  UNL1       -0.3308
     12 O          17.0756   73.4990   -9.3477 O.3     1  UNL1       -0.3794
     13 H          15.3696   73.1942   -7.1972 H       1  UNL1        0.2106
     14 H          16.1615   73.7871   -9.2217 H       1  UNL1        0.2105
     15 N          18.2828   70.7874   -5.8500 N.ar    1  UNL1       -0.2551
     16 C          17.3415   69.8790   -5.5378 C.ar    1  UNL1        0.3323
     17 N          17.3720   69.2262   -4.3609 N.ar    1  UNL1       -0.2743
     18 C          18.3554   69.4745   -3.4723 C.ar    1  UNL1        0.2626
     19 C          19.3534   70.4276   -3.7883 C.ar    1  UNL1        0.0795
     20 C          19.3006   71.0641   -4.9772 C.ar    1  UNL1        0.0869
     21 O          16.4489   69.6448   -6.3296 O.2     1  UNL1       -0.2464
     22 O          18.3844   68.8841   -2.4069 O.2     1  UNL1       -0.2670
     23 H          16.6847   68.5751   -4.1512 H       1  UNL1        0.1734
     24 O          22.0274   73.5766   -4.7215 O.3     1  UNL1       -0.2703
     25 P          23.0661   73.0195   -3.6244 P.3     1  UNL1        0.2208
     26 O          23.1798   71.4186   -3.7580 O.3     1  UNL1       -0.4371
     27 O          24.3954   73.6283   -3.8494 O.2     1  UNL1       -0.5170
     28 O          22.5439   73.3997   -2.1495 O.3     1  UNL1       -0.2865
     29 C          21.3580   72.8457   -1.5767 C.3     1  UNL1        0.2611
     30 C          20.8356   73.7783   -0.4812 C.3     1  UNL1        0.1582
     31 C          21.8839   73.8833    0.6307 C.3     1  UNL1        0.1625
     32 C          22.1922   72.4804    1.1610 C.3     1  UNL1        0.1686
     33 C          22.6626   71.5977    0.0019 C.3     1  UNL1        0.1760
     34 O          21.3742   74.6938    1.6921 O.3     1  UNL1       -0.3801
     35 O          21.0134   71.9194    1.7415 O.3     1  UNL1       -0.3794
     36 O          21.6550   71.5674   -1.0109 O.3     1  UNL1       -0.3263
     37 H          21.9876   74.8040    2.4316 H       1  UNL1        0.2105
     38 H          21.1355   71.0285    2.0983 H       1  UNL1        0.2105
     39 C          19.4770   75.7889   -0.7031 C.2     1  UNL1        0.2231
     40 C          19.2209   77.1548   -1.2841 C.3     1  UNL1        0.0946
     41 N          20.5871   75.1067   -1.0470 N.am    1  UNL1       -0.2994
     42 O          18.6835   75.3020    0.0750 O.2     1  UNL1       -0.2751
     43 H          21.2213   75.4952   -1.6698 H       1  UNL1        0.1496
     44 C          22.9157   70.1779    0.5126 C.3     1  UNL1        0.1693
     45 O          21.6823   69.4570    0.5488 O.3     1  UNL1       -0.3794
     46 H          21.7673   68.5467    0.8636 H       1  UNL1        0.2105
@<TRIPOS>BOND
     1    29    30    1
     2    30    41    1
     3    30    31    1
     4    31    34    1
     5    31    32    1
     6    32    35    1
     7    32    33    1
     8    33    36    1
     9    33    44    1
    10    39    40    1
    11    39    42    2
    12    39    41   am
    13    41    43    1
    14    29    28    1
    15    34    37    1
    16    35    38    1
    17    29    36    1
    18    44    45    1
    19    45    46    1
    20    15     6    1
    21    15    16   ar
    22    16    21    2
    23    16    17   ar
    24    17    23    1
    25    17    18   ar
    26    18    19   ar
    27    19    20   ar
    28    15    20   ar
    29    18    22    2
    30     6     7    1
    31     6    11    1
    32     7     9    1
    33     7     8    1
    34     8    13    1
    35     9    10    1
    36     9    12    1
    37    10     5    1
    38    10    11    1
    39    12    14    1
    40     5     4    1
    41     4     1    1
    42     1     2    1
    43     1    24    1
    44     1     3    2
    45    24    25    1
    46    28    25    1
    47    25    26    1
    48    25    27    2
@<TRIPOS>MOLECULE
UD2
 46 48 0 0 0
SMALL
GASTEIGER

@<TRIPOS>ATOM
      1 P          22.0903   70.6108   -0.3557 P.3     1  UNL1        0.2189
      2 O          21.8653   69.3603    0.6328 O.3     1  UNL1       -0.4371
      3 O          23.2625   70.3521   -1.2205 O.2     1  UNL1       -0.5170
      4 O          20.7813   70.8125   -1.2720 O.3     1  UNL1       -0.3112
      5 C          20.8458   71.2146   -2.6416 C.3     1  UNL1        0.1811
      6 C          18.2988   71.1041   -5.1787 C.3     1  UNL1        0.2383
      7 C          18.1681   69.7500   -4.4360 C.3     1  UNL1        0.1895
      8 O          16.8156   69.2892   -4.4498 O.3     1  UNL1       -0.3779
      9 C          18.6099   70.1229   -2.9996 C.3     1  UNL1        0.1713
     10 C          19.4276   71.4160   -3.1810 C.3     1  UNL1        0.1764
     11 O          19.4755   71.6980   -4.5887 O.3     1  UNL1       -0.3308
     12 O          17.4695   70.3635   -2.1735 O.3     1  UNL1       -0.3794
     13 H          16.6828   68.4450   -3.9979 H       1  UNL1        0.2106
     14 H          16.8873   69.5984   -2.0730 H       1  UNL1        0.2105
     15 N          18.4939   70.8883   -6.6141 N.ar    1  UNL1       -0.2551
     16 C          17.4249   70.7797   -7.4230 C.ar    1  UNL1        0.3323
     17 N          17.5745   70.5809   -8.7460 N.ar    1  UNL1       -0.2743
     18 C          18.8080   70.4890   -9.2833 C.ar    1  UNL1        0.2626
     19 C          19.9422   70.6025   -8.4437 C.ar    1  UNL1        0.0795
     20 C          19.7627   70.8058   -7.1216 C.ar    1  UNL1        0.0869
     21 O          16.3067   70.8608   -6.9523 O.2     1  UNL1       -0.2464
     22 O          18.9448   70.3095  -10.4806 O.2     1  UNL1       -0.2670
     23 H          16.7931   70.5037   -9.3148 H       1  UNL1        0.1734
     24 O          22.3470   71.9424    0.5128 O.3     1  UNL1       -0.2703
     25 P          21.3945   72.9225    1.3642 P.3     1  UNL1        0.2208
     26 O          20.2152   73.4787    0.4188 O.3     1  UNL1       -0.4371
     27 O          20.8064   72.1767    2.4984 O.2     1  UNL1       -0.5170
     28 O          22.2608   74.1583    1.9255 O.3     1  UNL1       -0.2865
     29 C          21.7481   75.1058    2.8639 C.3     1  UNL1        0.2611
     30 C          21.7073   76.4933    2.2191 C.3     1  UNL1        0.1582
     31 C          23.1331   76.9212    1.8580 C.3     1  UNL1        0.1625
     32 C          23.9983   76.8933    3.1209 C.3     1  UNL1        0.1686
     33 C          23.9508   75.4899    3.7312 C.3     1  UNL1        0.1760
     34 O          23.1125   78.2463    1.3223 O.3     1  UNL1       -0.3801
     35 O          23.4971   77.8421    4.0643 O.3     1  UNL1       -0.3794
     36 O          22.5944   75.1413    4.0150 O.3     1  UNL1       -0.3263
     37 H          23.9838   78.5819    1.0707 H       1  UNL1        0.2105
     38 H          23.9982   77.8780    4.8911 H       1  UNL1        0.2105
     39 C          20.0223   77.4416    0.7361 C.2     1  UNL1        0.2231
     40 C          19.1802   77.3927   -0.5118 C.3     1  UNL1        0.0946
     41 N          20.8884   76.4448    1.0052 N.am    1  UNL1       -0.2994
     42 O          19.9212   78.3789    1.4999 O.2     1  UNL1       -0.2751
     43 H          20.9688   75.6948    0.3953 H       1  UNL1        0.1496
     44 C          24.7647   75.4695    5.0264 C.3     1  UNL1        0.1693
     45 O          25.5644   74.2858    5.0686 O.3     1  UNL1       -0.3794
     46 H          26.1082   74.2061    5.8642 H       1  UNL1        0.2105
@<TRIPOS>BOND
     1    29    30    1
     2    30    41    1
     3    30    31    1
     4    31    34    1
     5    31    32    1
     6    32    35    1
     7    32    33    1
     8    33    36    1
     9    33    44    1
    10    39    40    1
    11    39    42    2
    12    39    41   am
    13    41    43    1
    14    29    28    1
    15    34    37    1
    16    35    38    1
    17    29    36    1
    18    44    45    1
    19    45    46    1
    20    15     6    1
    21    15    16   ar
    22    16    21    2
    23    16    17   ar
    24    17    23    1
    25    17    18   ar
    26    18    19   ar
    27    19    20   ar
    28    15    20   ar
    29    18    22    2
    30     6     7    1
    31     6    11    1
    32     7     9    1
    33     7     8    1
    34     8    13    1
    35     9    10    1
    36     9    12    1
    37    10     5    1
    38    10    11    1
    39    12    14    1
    40     5     4    1
    41     4     1    1
    42     1     2    1
    43     1    24    1
    44     1     3    2
    45    24    25    1
    46    28    25    1
    47    25    26    1
    48    25    27    2
@<TRIPOS>MOLECULE
UD2
 46 48 0 0 0
SMALL
GASTEIGER

@<TRIPOS>ATOM
      1 P          21.8869   70.3377   -0.4816 P.3     1  UNL1        0.2189
      2 O          22.3571   69.1324    0.4763 O.3     1  UNL1       -0.4371
      3 O          22.9641   70.6511   -1.4461 O.2     1  UNL1       -0.5170
      4 O          20.5599   69.9001   -1.2824 O.3     1  UNL1       -0.3112
      5 C          20.4994   69.8331   -2.7084 C.3     1  UNL1        0.1811
      6 C          18.6625   71.5750   -5.2634 C.3     1  UNL1        0.2383
      7 C          17.6642   70.5250   -4.7129 C.3     1  UNL1        0.1895
      8 O          16.3204   71.0024   -4.8033 O.3     1  UNL1       -0.3779
      9 C          18.1072   70.3987   -3.2347 C.3     1  UNL1        0.1713
     10 C          19.5568   70.9204   -3.2301 C.3     1  UNL1        0.1764
     11 O          19.8964   71.2522   -4.5859 O.3     1  UNL1       -0.3308
     12 O          17.2814   71.2076   -2.3955 O.3     1  UNL1       -0.3794
     13 H          15.6587   70.3805   -4.4716 H       1  UNL1        0.2106
     14 H          16.3469   70.9605   -2.4059 H       1  UNL1        0.2105
     15 N          18.8162   71.4304   -6.7127 N.ar    1  UNL1       -0.2551
     16 C          17.9906   72.0958   -7.5400 C.ar    1  UNL1        0.3323
     17 N          18.1088   71.9815   -8.8762 N.ar    1  UNL1       -0.2743
     18 C          19.0653   71.1935   -9.4080 C.ar    1  UNL1        0.2626
     19 C          19.9418   70.4881   -8.5488 C.ar    1  UNL1        0.0795
     20 C          19.8032   70.6246   -7.2133 C.ar    1  UNL1        0.0869
     21 O          17.1237   72.8101   -7.0745 O.2     1  UNL1       -0.2464
     22 O          19.1735   71.0895  -10.6171 O.2     1  UNL1       -0.2670
     23 H          17.5045   72.4673   -9.4583 H       1  UNL1        0.1734
     24 O          21.5693   71.6401    0.4107 O.3     1  UNL1       -0.2703
     25 P          20.8965   73.0701    0.1016 P.3     1  UNL1        0.2208
     26 O          19.5815   72.8594   -0.8040 O.3     1  UNL1       -0.4371
     27 O          20.5190   73.7234    1.3740 O.2     1  UNL1       -0.5170
     28 O          21.9489   73.9987   -0.6876 O.3     1  UNL1       -0.2865
     29 C          23.3641   73.8326   -0.5841 C.3     1  UNL1        0.2611
     30 C          23.9363   74.8964    0.3560 C.3     1  UNL1        0.1582
     31 C          23.6730   76.2841   -0.2367 C.3     1  UNL1        0.1625
     32 C          24.2891   76.3548   -1.6366 C.3     1  UNL1        0.1686
     33 C          23.7030   75.2346   -2.5001 C.3     1  UNL1        0.1760
     34 O          24.2683   77.2803    0.5979 O.3     1  UNL1       -0.3801
     35 O          25.7058   76.1954   -1.5436 O.3     1  UNL1       -0.3794
     36 O          23.9557   73.9735   -1.8773 O.3     1  UNL1       -0.3263
     37 H          24.1398   78.1853    0.2823 H       1  UNL1        0.2105
     38 H          26.1628   76.2290   -2.3957 H       1  UNL1        0.2105
     39 C          24.0144   74.9361    2.7912 C.2     1  UNL1        0.2231
     40 C          23.3482   74.8293    4.1378 C.3     1  UNL1        0.0946
     41 N          23.2876   74.7921    1.6655 N.am    1  UNL1       -0.2994
     42 O          25.2062   75.1519    2.7193 O.2     1  UNL1       -0.2751
     43 H          22.3349   74.6185    1.7226 H       1  UNL1        0.1496
     44 C          24.3575   75.2612   -3.8827 C.3     1  UNL1        0.1693
     45 O          25.4304   74.3179   -3.9209 O.3     1  UNL1       -0.3794
     46 H          25.8922   74.2808   -4.7696 H       1  UNL1        0.2105
@<TRIPOS>BOND
     1    29    30    1
     2    30    41    1
     3    30    31    1
     4    31    34    1
     5    31    32    1
     6    32    35    1
     7    32    33    1
     8    33    36    1
     9    33    44    1
    10    39    40    1
    11    39    42    2
    12    39    41   am
    13    41    43    1
    14    29    28    1
    15    34    37    1
    16    35    38    1
    17    29    36    1
    18    44    45    1
    19    45    46    1
    20    15     6    1
    21    15    16   ar
    22    16    21    2
    23    16    17   ar
    24    17    23    1
    25    17    18   ar
    26    18    19   ar
    27    19    20   ar
    28    15    20   ar
    29    18    22    2
    30     6     7    1
    31     6    11    1
    32     7     9    1
    33     7     8    1
    34     8    13    1
    35     9    10    1
    36     9    12    1
    37    10     5    1
    38    10    11    1
    39    12    14    1
    40     5     4    1
    41     4     1    1
    42     1     2    1
    43     1    24    1
    44     1     3    2
    45    24    25    1
    46    28    25    1
    47    25    26    1
    48    25    27    2
@<TRIPOS>MOLECULE
UD2
 46 48 0 0 0
SMALL
GASTEIGER

@<TRIPOS>ATOM
      1 P          21.9396   70.7437   -0.4177 P.3     1  UNL1        0.2189
      2 O          21.5360   69.4634    0.4708 O.3     1  UNL1       -0.4371
      3 O          23.0386   70.3792   -1.3387 O.2     1  UNL1       -0.5170
      4 O          20.6627   71.2286   -1.2710 O.3     1  UNL1       -0.3112
      5 C          20.7208   71.4946   -2.6736 C.3     1  UNL1        0.1811
      6 C          18.2208   71.1484   -5.2360 C.3     1  UNL1        0.2383
      7 C          18.1714   69.8079   -4.4598 C.3     1  UNL1        0.1895
      8 O          16.8533   69.2566   -4.4772 O.3     1  UNL1       -0.3779
      9 C          18.5682   70.2459   -3.0287 C.3     1  UNL1        0.1713
     10 C          19.2995   71.5862   -3.2343 C.3     1  UNL1        0.1764
     11 O          19.3470   71.8352   -4.6482 O.3     1  UNL1       -0.3308
     12 O          17.4034   70.4296   -2.2223 O.3     1  UNL1       -0.3794
     13 H          16.7715   68.4170   -4.0049 H       1  UNL1        0.2106
     14 H          16.8726   69.6298   -2.1086 H       1  UNL1        0.2105
     15 N          18.4488   70.9102   -6.6630 N.ar    1  UNL1       -0.2551
     16 C          17.3987   70.7551   -7.4889 C.ar    1  UNL1        0.3323
     17 N          17.5788   70.5347   -8.8047 N.ar    1  UNL1       -0.2743
     18 C          18.8243   70.4677   -9.3174 C.ar    1  UNL1        0.2626
     19 C          19.9387   70.6302   -8.4597 C.ar    1  UNL1        0.0795
     20 C          19.7287   70.8542   -7.1455 C.ar    1  UNL1        0.0869
     21 O          16.2701   70.8132   -7.0404 O.2     1  UNL1       -0.2464
     22 O          18.9886   70.2687  -10.5082 O.2     1  UNL1       -0.2670
     23 H          16.8107   70.4239   -9.3859 H       1  UNL1        0.1734
     24 O          22.4229   71.9374    0.5492 O.3     1  UNL1       -0.2703
     25 P          21.7284   72.7526    1.7517 P.3     1  UNL1        0.2208
     26 O          20.7136   73.8450    1.1431 O.3     1  UNL1       -0.4371
     27 O          20.9810   71.8141    2.6172 O.2     1  UNL1       -0.5170
     28 O          22.8617   73.4973    2.6199 O.3     1  UNL1       -0.2865
     29 C          22.7877   74.8792    2.9749 C.3     1  UNL1        0.2611
     30 C          24.1862   75.3924    3.3264 C.3     1  UNL1        0.1582
     31 C          24.7102   74.6265    4.5452 C.3     1  UNL1        0.1625
     32 C          23.7225   74.7937    5.7031 C.3     1  UNL1        0.1686
     33 C          22.3415   74.3034    5.2598 C.3     1  UNL1        0.1760
     34 O          25.9850   75.1495    4.9255 O.3     1  UNL1       -0.3801
     35 O          23.6454   76.1724    6.0699 O.3     1  UNL1       -0.3794
     36 O          21.9264   75.0349    4.1046 O.3     1  UNL1       -0.3263
     37 H          26.3774   74.7095    5.6921 H       1  UNL1        0.2105
     38 H          23.0357   76.3526    6.7991 H       1  UNL1        0.2105
     39 C          25.6947   76.2294    1.6055 C.2     1  UNL1        0.2231
     40 C          26.6198   76.0106    0.4372 C.3     1  UNL1        0.0946
     41 N          25.0858   75.1787    2.1899 N.am    1  UNL1       -0.2994
     42 O          25.4971   77.3521    2.0210 O.2     1  UNL1       -0.2751
     43 H          25.2427   74.2811    1.8574 H       1  UNL1        0.1496
     44 C          21.3355   74.5224    6.3913 C.3     1  UNL1        0.1693
     45 O          21.9179   74.1186    7.6323 O.3     1  UNL1       -0.3794
     46 H          21.3348   74.2297    8.3957 H       1  UNL1        0.2105
@<TRIPOS>BOND
     1    29    30    1
     2    30    41    1
     3    30    31    1
     4    31    34    1
     5    31    32    1
     6    32    35    1
     7    32    33    1
     8    33    36    1
     9    33    44    1
    10    39    40    1
    11    39    42    2
    12    39    41   am
    13    41    43    1
    14    29    28    1
    15    34    37    1
    16    35    38    1
    17    29    36    1
    18    44    45    1
    19    45    46    1
    20    15     6    1
    21    15    16   ar
    22    16    21    2
    23    16    17   ar
    24    17    23    1
    25    17    18   ar
    26    18    19   ar
    27    19    20   ar
    28    15    20   ar
    29    18    22    2
    30     6     7    1
    31     6    11    1
    32     7     9    1
    33     7     8    1
    34     8    13    1
    35     9    10    1
    36     9    12    1
    37    10     5    1
    38    10    11    1
    39    12    14    1
    40     5     4    1
    41     4     1    1
    42     1     2    1
    43     1    24    1
    44     1     3    2
    45    24    25    1
    46    28    25    1
    47    25    26    1
    48    25    27    2
@<TRIPOS>MOLECULE
UD2
 46 48 0 0 0
SMALL
GASTEIGER

@<TRIPOS>ATOM
      1 P          22.1111   71.3462   -0.3669 P.3     1  UNL1        0.2189
      2 O          21.6007   71.1770    1.1504 O.3     1  UNL1       -0.4371
      3 O          22.8083   70.1131   -0.7939 O.2     1  UNL1       -0.5170
      4 O          20.8486   71.6104   -1.3313 O.3     1  UNL1       -0.3112
      5 C          20.7649   71.0941   -2.6609 C.3     1  UNL1        0.1811
      6 C          18.2723   71.1271   -5.2537 C.3     1  UNL1        0.2383
      7 C          18.0311   69.7955   -4.4982 C.3     1  UNL1        0.1895
      8 O          16.6504   69.4298   -4.5373 O.3     1  UNL1       -0.3779
      9 C          18.4665   70.1559   -3.0567 C.3     1  UNL1        0.1713
     10 C          19.3762   71.3865   -3.2347 C.3     1  UNL1        0.1764
     11 O          19.4745   71.6456   -4.6442 O.3     1  UNL1       -0.3308
     12 O          17.3280   70.4862   -2.2595 O.3     1  UNL1       -0.3794
     13 H          16.4491   68.6029   -4.0785 H       1  UNL1        0.2106
     14 H          16.6916   69.7649   -2.1633 H       1  UNL1        0.2105
     15 N          18.4830   70.8791   -6.6817 N.ar    1  UNL1       -0.2551
     16 C          17.4235   70.7767   -7.5037 C.ar    1  UNL1        0.3323
     17 N          17.5876   70.5489   -8.8203 N.ar    1  UNL1       -0.2743
     18 C          18.8264   70.4210   -9.3378 C.ar    1  UNL1        0.2626
     19 C          19.9507   70.5277   -8.4841 C.ar    1  UNL1        0.0795
     20 C          19.7568   70.7606   -7.1690 C.ar    1  UNL1        0.0869
     21 O          16.3008   70.8900   -7.0510 O.2     1  UNL1       -0.2464
     22 O          18.9763   70.2152  -10.5293 O.2     1  UNL1       -0.2670
     23 H          16.8128   70.4765   -9.3987 H       1  UNL1        0.1734
     24 O          23.1245   72.5945   -0.4565 O.3     1  UNL1       -0.2703
     25 P          22.9314   74.1932   -0.4589 P.3     1  UNL1        0.2208
     26 O          21.6444   74.5791    0.4291 O.3     1  UNL1       -0.4371
     27 O          24.1348   74.8365    0.1122 O.2     1  UNL1       -0.5170
     28 O          22.7144   74.7052   -1.9700 O.3     1  UNL1       -0.2865
     29 C          23.2597   74.0317   -3.1059 C.3     1  UNL1        0.2611
     30 C          24.3724   74.8844   -3.7204 C.3     1  UNL1        0.1582
     31 C          23.7786   76.2101   -4.2064 C.3     1  UNL1        0.1625
     32 C          22.6535   75.9182   -5.2031 C.3     1  UNL1        0.1686
     33 C          21.6067   75.0255   -4.5313 C.3     1  UNL1        0.1760
     34 O          24.7963   76.9822   -4.8477 O.3     1  UNL1       -0.3801
     35 O          23.1895   75.2495   -6.3462 O.3     1  UNL1       -0.3794
     36 O          22.2303   73.8234   -4.0751 O.3     1  UNL1       -0.3263
     37 H          24.4900   77.8371   -5.1803 H       1  UNL1        0.2105
     38 H          22.5307   75.0324   -7.0206 H       1  UNL1        0.2105
     39 C          26.7046   75.0752   -3.0406 C.2     1  UNL1        0.2231
     40 C          27.7618   75.3476   -2.0030 C.3     1  UNL1        0.0946
     41 N          25.4002   75.1492   -2.7104 N.am    1  UNL1       -0.2994
     42 O          27.0271   74.7889   -4.1747 O.2     1  UNL1       -0.2751
     43 H          25.1419   75.3772   -1.8036 H       1  UNL1        0.1496
     44 C          20.5088   74.6802   -5.5391 C.3     1  UNL1        0.1693
     45 O          20.3907   75.7350   -6.4961 O.3     1  UNL1       -0.3794
     46 H          19.7116   75.5835   -7.1675 H       1  UNL1        0.2105
@<TRIPOS>BOND
     1    29    30    1
     2    30    41    1
     3    30    31    1
     4    31    34    1
     5    31    32    1
     6    32    35    1
     7    32    33    1
     8    33    36    1
     9    33    44    1
    10    39    40    1
    11    39    42    2
    12    39    41   am
    13    41    43    1
    14    29    28    1
    15    34    37    1
    16    35    38    1
    17    29    36    1
    18    44    45    1
    19    45    46    1
    20    15     6    1
    21    15    16   ar
    22    16    21    2
    23    16    17   ar
    24    17    23    1
    25    17    18   ar
    26    18    19   ar
    27    19    20   ar
    28    15    20   ar
    29    18    22    2
    30     6     7    1
    31     6    11    1
    32     7     9    1
    33     7     8    1
    34     8    13    1
    35     9    10    1
    36     9    12    1
    37    10     5    1
    38    10    11    1
    39    12    14    1
    40     5     4    1
    41     4     1    1
    42     1     2    1
    43     1    24    1
    44     1     3    2
    45    24    25    1
    46    28    25    1
    47    25    26    1
    48    25    27    2
@<TRIPOS>MOLECULE
UD2
 46 48 0 0 0
SMALL
GASTEIGER

@<TRIPOS>ATOM
      1 P          22.9108   72.1987   -3.1690 P.3     1  UNL1        0.2189
      2 O          23.4973   70.6998   -3.1436 O.3     1  UNL1       -0.4371
      3 O          23.6204   72.9893   -4.1987 O.2     1  UNL1       -0.5170
      4 O          21.3387   72.1538   -3.5156 O.3     1  UNL1       -0.3112
      5 C          20.3348   71.8765   -2.5374 C.3     1  UNL1        0.1811
      6 C          18.0227   71.3654   -5.2448 C.3     1  UNL1        0.2383
      7 C          17.9377   70.0633   -4.4085 C.3     1  UNL1        0.1895
      8 O          16.6313   69.4900   -4.4888 O.3     1  UNL1       -0.3779
      9 C          18.2287   70.5764   -2.9770 C.3     1  UNL1        0.1713
     10 C          18.9546   71.9172   -3.1979 C.3     1  UNL1        0.1764
     11 O          19.0964   72.0984   -4.6158 O.3     1  UNL1       -0.3308
     12 O          17.0086   70.7795   -2.2622 O.3     1  UNL1       -0.3794
     13 H          16.5282   68.6729   -3.9824 H       1  UNL1        0.2106
     14 H          16.4819   69.9774   -2.1458 H       1  UNL1        0.2105
     15 N          18.3520   71.0623   -6.6393 N.ar    1  UNL1       -0.2551
     16 C          17.3638   70.8480   -7.5259 C.ar    1  UNL1        0.3323
     17 N          17.6373   70.5673   -8.8138 N.ar    1  UNL1       -0.2743
     18 C          18.9160   70.4984   -9.2367 C.ar    1  UNL1        0.2626
     19 C          19.9662   70.7229   -8.3143 C.ar    1  UNL1        0.0795
     20 C          19.6628   71.0065   -7.0302 C.ar    1  UNL1        0.0869
     21 O          16.2062   70.9071   -7.1587 O.2     1  UNL1       -0.2464
     22 O          19.1649   70.2449  -10.4021 O.2     1  UNL1       -0.2670
     23 H          16.9127   70.4142   -9.4397 H       1  UNL1        0.1734
     24 O          23.1223   72.8826   -1.7265 O.3     1  UNL1       -0.2703
     25 P          23.0619   74.3992   -1.1887 P.3     1  UNL1        0.2208
     26 O          24.5158   75.0771   -1.3317 O.3     1  UNL1       -0.4371
     27 O          22.0799   75.1667   -1.9856 O.2     1  UNL1       -0.5170
     28 O          22.6177   74.4024    0.3590 O.3     1  UNL1       -0.2865
     29 C          23.3556   73.7315    1.3820 C.3     1  UNL1        0.2611
     30 C          22.4904   72.6289    1.9971 C.3     1  UNL1        0.1582
     31 C          21.2593   73.2633    2.6516 C.3     1  UNL1        0.1625
     32 C          21.7187   74.2887    3.6917 C.3     1  UNL1        0.1686
     33 C          22.6139   75.3276    3.0111 C.3     1  UNL1        0.1760
     34 O          20.4830   72.2482    3.2921 O.3     1  UNL1       -0.3801
     35 O          22.4533   73.6268    4.7229 O.3     1  UNL1       -0.3794
     36 O          23.7230   74.6689    2.3963 O.3     1  UNL1       -0.3263
     37 H          19.6858   72.5795    3.7278 H       1  UNL1        0.2105
     38 H          22.7766   74.2175    5.4176 H       1  UNL1        0.2105
     39 C          22.5257   70.4340    0.9393 C.2     1  UNL1        0.2231
     40 C          22.0868   69.4781   -0.1387 C.3     1  UNL1        0.0946
     41 N          22.0632   71.6997    0.9480 N.am    1  UNL1       -0.2994
     42 O          23.2963   70.0648    1.8008 O.2     1  UNL1       -0.2751
     43 H          21.4479   71.9957    0.2589 H       1  UNL1        0.1496
     44 C          23.1256   76.3219    4.0551 C.3     1  UNL1        0.1693
     45 O          24.2960   75.7944    4.6829 O.3     1  UNL1       -0.3794
     46 H          24.6757   76.3733    5.3580 H       1  UNL1        0.2105
@<TRIPOS>BOND
     1    29    30    1
     2    30    41    1
     3    30    31    1
     4    31    34    1
     5    31    32    1
     6    32    35    1
     7    32    33    1
     8    33    36    1
     9    33    44    1
    10    39    40    1
    11    39    42    2
    12    39    41   am
    13    41    43    1
    14    29    28    1
    15    34    37    1
    16    35    38    1
    17    29    36    1
    18    44    45    1
    19    45    46    1
    20    15     6    1
    21    15    16   ar
    22    16    21    2
    23    16    17   ar
    24    17    23    1
    25    17    18   ar
    26    18    19   ar
    27    19    20   ar
    28    15    20   ar
    29    18    22    2
    30     6     7    1
    31     6    11    1
    32     7     9    1
    33     7     8    1
    34     8    13    1
    35     9    10    1
    36     9    12    1
    37    10     5    1
    38    10    11    1
    39    12    14    1
    40     5     4    1
    41     4     1    1
    42     1     2    1
    43     1    24    1
    44     1     3    2
    45    24    25    1
    46    28    25    1
    47    25    26    1
    48    25    27    2
@<TRIPOS>MOLECULE
UD2
 46 48 0 0 0
SMALL
GASTEIGER

@<TRIPOS>ATOM
      1 P          21.9373   70.7217   -0.4369 P.3     1  UNL1        0.2189
      2 O          21.5852   69.4618    0.5012 O.3     1  UNL1       -0.4371
      3 O          23.0388   70.3606   -1.3561 O.2     1  UNL1       -0.5170
      4 O          20.6367   71.1330   -1.2932 O.3     1  UNL1       -0.3112
      5 C          20.7000   71.5098   -2.6699 C.3     1  UNL1        0.1811
      6 C          18.2130   71.1622   -5.2449 C.3     1  UNL1        0.2383
      7 C          18.1566   69.8238   -4.4655 C.3     1  UNL1        0.1895
      8 O          16.8374   69.2753   -4.4885 O.3     1  UNL1       -0.3779
      9 C          18.5466   70.2647   -3.0334 C.3     1  UNL1        0.1713
     10 C          19.2819   71.6029   -3.2385 C.3     1  UNL1        0.1764
     11 O          19.3375   71.8481   -4.6528 O.3     1  UNL1       -0.3308
     12 O          17.3779   70.4530   -2.2338 O.3     1  UNL1       -0.3794
     13 H          16.7514   68.4371   -4.0145 H       1  UNL1        0.2106
     14 H          16.8448   69.6546   -2.1209 H       1  UNL1        0.2105
     15 N          18.4482   70.9197   -6.6700 N.ar    1  UNL1       -0.2551
     16 C          17.4022   70.7640   -7.5010 C.ar    1  UNL1        0.3323
     17 N          17.5889   70.5398   -8.8152 N.ar    1  UNL1       -0.2743
     18 C          18.8370   70.4695   -9.3212 C.ar    1  UNL1        0.2626
     19 C          19.9471   70.6326   -8.4581 C.ar    1  UNL1        0.0795
     20 C          19.7305   70.8605   -7.1456 C.ar    1  UNL1        0.0869
     21 O          16.2713   70.8251   -7.0587 O.2     1  UNL1       -0.2464
     22 O          19.0073   70.2671  -10.5105 O.2     1  UNL1       -0.2670
     23 H          16.8237   70.4286   -9.4002 H       1  UNL1        0.1734
     24 O          22.3897   71.9650    0.4812 O.3     1  UNL1       -0.2703
     25 P          21.6680   72.8209    1.6386 P.3     1  UNL1        0.2208
     26 O          20.4228   73.6273    1.0118 O.3     1  UNL1       -0.4371
     27 O          21.1817   71.9086    2.6967 O.2     1  UNL1       -0.5170
     28 O          22.7200   73.8635    2.2700 O.3     1  UNL1       -0.2865
     29 C          22.7034   75.2613    1.9747 C.3     1  UNL1        0.2611
     30 C          23.8206   75.5870    0.9804 C.3     1  UNL1        0.1582
     31 C          25.1735   75.2632    1.6217 C.3     1  UNL1        0.1625
     32 C          25.3097   76.0523    2.9267 C.3     1  UNL1        0.1686
     33 C          24.1348   75.7085    3.8462 C.3     1  UNL1        0.1760
     34 O          26.2259   75.6330    0.7279 O.3     1  UNL1       -0.3801
     35 O          25.3000   77.4522    2.6417 O.3     1  UNL1       -0.3794
     36 O          22.9068   76.0045    3.1783 O.3     1  UNL1       -0.3263
     37 H          27.1127   75.4547    1.0700 H       1  UNL1        0.2105
     38 H          25.3821   78.0143    3.4248 H       1  UNL1        0.2105
     39 C          23.8559   75.3332   -1.4428 C.2     1  UNL1        0.2231
     40 C          23.6785   74.5057   -2.6888 C.3     1  UNL1        0.0946
     41 N          23.6476   74.7815   -0.2311 N.am    1  UNL1       -0.2994
     42 O          24.1865   76.4974   -1.5296 O.2     1  UNL1       -0.2751
     43 H          23.3823   73.8510   -0.1613 H       1  UNL1        0.1496
     44 C          24.2313   76.5376    5.1282 C.3     1  UNL1        0.1693
     45 O          24.1010   75.6787    6.2629 O.3     1  UNL1       -0.3794
     46 H          24.1526   76.1377    7.1124 H       1  UNL1        0.2105
@<TRIPOS>BOND
     1    29    30    1
     2    30    41    1
     3    30    31    1
     4    31    34    1
     5    31    32    1
     6    32    35    1
     7    32    33    1
     8    33    36    1
     9    33    44    1
    10    39    40    1
    11    39    42    2
    12    39    41   am
    13    41    43    1
    14    29    28    1
    15    34    37    1
    16    35    38    1
    17    29    36    1
    18    44    45    1
    19    45    46    1
    20    15     6    1
    21    15    16   ar
    22    16    21    2
    23    16    17   ar
    24    17    23    1
    25    17    18   ar
    26    18    19   ar
    27    19    20   ar
    28    15    20   ar
    29    18    22    2
    30     6     7    1
    31     6    11    1
    32     7     9    1
    33     7     8    1
    34     8    13    1
    35     9    10    1
    36     9    12    1
    37    10     5    1
    38    10    11    1
    39    12    14    1
    40     5     4    1
    41     4     1    1
    42     1     2    1
    43     1    24    1
    44     1     3    2
    45    24    25    1
    46    28    25    1
    47    25    26    1
    48    25    27    2
@<TRIPOS>MOLECULE
UD2
 46 48 0 0 0
SMALL
GASTEIGER

@<TRIPOS>ATOM
      1 P          21.8653   70.4392   -0.2882 P.3     1  UNL1        0.2189
      2 O          22.6316   69.1947    0.3866 O.3     1  UNL1       -0.4371
      3 O          22.8118   71.2053   -1.1285 O.2     1  UNL1       -0.5170
      4 O          20.6567   69.8935   -1.2020 O.3     1  UNL1       -0.3112
      5 C          20.6760   69.9478   -2.6296 C.3     1  UNL1        0.1811
      6 C          18.6295   71.5293   -5.1291 C.3     1  UNL1        0.2383
      7 C          17.7710   70.3462   -4.6140 C.3     1  UNL1        0.1895
      8 O          16.3781   70.6554   -4.6904 O.3     1  UNL1       -0.3779
      9 C          18.2306   70.2282   -3.1401 C.3     1  UNL1        0.1713
     10 C          19.6041   70.9257   -3.1170 C.3     1  UNL1        0.1764
     11 O          19.8958   71.3407   -4.4610 O.3     1  UNL1       -0.3308
     12 O          17.3130   70.9008   -2.2761 O.3     1  UNL1       -0.3794
     13 H          15.7997   69.9457   -4.3798 H       1  UNL1        0.2106
     14 H          16.4165   70.5398   -2.2957 H       1  UNL1        0.2105
     15 N          18.7958   71.4518   -6.5821 N.ar    1  UNL1       -0.2551
     16 C          17.9137   72.0696   -7.3877 C.ar    1  UNL1        0.3323
     17 N          18.0419   72.0149   -8.7267 N.ar    1  UNL1       -0.2743
     18 C          19.0655   71.3361   -9.2833 C.ar    1  UNL1        0.2626
     19 C          20.0020   70.6818   -8.4472 C.ar    1  UNL1        0.0795
     20 C          19.8514   70.7568   -7.1081 C.ar    1  UNL1        0.0869
     21 O          16.9859   72.6856   -6.8997 O.2     1  UNL1       -0.2464
     22 O          19.1829   71.2861  -10.4950 O.2     1  UNL1       -0.2670
     23 H          17.3963   72.4651   -9.2930 H       1  UNL1        0.1734
     24 O          21.2755   71.3959    0.8651 O.3     1  UNL1       -0.2703
     25 P          21.9445   72.3285    1.9946 P.3     1  UNL1        0.2208
     26 O          22.9060   71.4346    2.9275 O.3     1  UNL1       -0.4371
     27 O          22.7392   73.3950    1.3470 O.2     1  UNL1       -0.5170
     28 O          20.7877   72.9928    2.8963 O.3     1  UNL1       -0.2865
     29 C          20.7808   74.3746    3.2595 C.3     1  UNL1        0.2611
     30 C          21.5186   74.5577    4.5880 C.3     1  UNL1        0.1582
     31 C          20.7782   73.7850    5.6839 C.3     1  UNL1        0.1625
     32 C          19.3300   74.2777    5.7515 C.3     1  UNL1        0.1686
     33 C          18.6765   74.1053    4.3778 C.3     1  UNL1        0.1760
     34 O          21.4184   74.0100    6.9420 O.3     1  UNL1       -0.3801
     35 O          19.3118   75.6580    6.1199 O.3     1  UNL1       -0.3794
     36 O          19.4312   74.8232    3.3995 O.3     1  UNL1       -0.3263
     37 H          21.0015   73.5491    7.6830 H       1  UNL1        0.2105
     38 H          18.4241   76.0377    6.1813 H       1  UNL1        0.2105
     39 C          23.9337   74.8417    4.7436 C.2     1  UNL1        0.2231
     40 C          25.3385   74.3136    4.6165 C.3     1  UNL1        0.0946
     41 N          22.8848   74.0432    4.4639 N.am    1  UNL1       -0.2994
     42 O          23.7457   75.9869    5.0979 O.2     1  UNL1       -0.2751
     43 H          23.0346   73.1279    4.1796 H       1  UNL1        0.1496
     44 C          17.2477   74.6505    4.4210 C.3     1  UNL1        0.1693
     45 O          16.9315   75.2599    3.1676 O.3     1  UNL1       -0.3794
     46 H          16.0386   75.6284    3.1230 H       1  UNL1        0.2105
@<TRIPOS>BOND
     1    29    30    1
     2    30    41    1
     3    30    31    1
     4    31    34    1
     5    31    32    1
     6    32    35    1
     7    32    33    1
     8    33    36    1
     9    33    44    1
    10    39    40    1
    11    39    42    2
    12    39    41   am
    13    41    43    1
    14    29    28    1
    15    34    37    1
    16    35    38    1
    17    29    36    1
    18    44    45    1
    19    45    46    1
    20    15     6    1
    21    15    16   ar
    22    16    21    2
    23    16    17   ar
    24    17    23    1
    25    17    18   ar
    26    18    19   ar
    27    19    20   ar
    28    15    20   ar
    29    18    22    2
    30     6     7    1
    31     6    11    1
    32     7     9    1
    33     7     8    1
    34     8    13    1
    35     9    10    1
    36     9    12    1
    37    10     5    1
    38    10    11    1
    39    12    14    1
    40     5     4    1
    41     4     1    1
    42     1     2    1
    43     1    24    1
    44     1     3    2
    45    24    25    1
    46    28    25    1
    47    25    26    1
    48    25    27    2
@<TRIPOS>MOLECULE
UD2
 46 48 0 0 0
SMALL
GASTEIGER

@<TRIPOS>ATOM
      1 P          22.0571   70.8984   -2.6376 P.3     1  UNL1        0.2189
      2 O          23.5333   70.7385   -3.2594 O.3     1  UNL1       -0.4371
      3 O          21.2631   69.6852   -2.9316 O.2     1  UNL1       -0.5170
      4 O          22.1653   71.0957   -1.0428 O.3     1  UNL1       -0.3112
      5 C          21.0646   71.5180   -0.2356 C.3     1  UNL1        0.1811
      6 C          21.6907   74.2634    2.0021 C.3     1  UNL1        0.2383
      7 C          23.0804   73.9202    1.4079 C.3     1  UNL1        0.1895
      8 O          23.9018   75.0865    1.3251 O.3     1  UNL1       -0.3779
      9 C          22.7116   73.4029   -0.0041 C.3     1  UNL1        0.1713
     10 C          21.2302   72.9980    0.1182 C.3     1  UNL1        0.1764
     11 O          20.8367   73.2216    1.4815 O.3     1  UNL1       -0.3308
     12 O          22.8684   74.4413   -0.9725 O.3     1  UNL1       -0.3794
     13 H          24.7819   74.9230    0.9600 H       1  UNL1        0.2106
     14 H          23.7722   74.7757   -1.0490 H       1  UNL1        0.2105
     15 N          21.7294   74.2161    3.4654 N.ar    1  UNL1       -0.2551
     16 C          21.8512   73.0317    4.0909 C.ar    1  UNL1        0.3323
     17 N          21.8893   72.9585    5.4346 N.ar    1  UNL1       -0.2743
     18 C          21.8071   74.0806    6.1780 C.ar    1  UNL1        0.2626
     19 C          21.6797   75.3342    5.5327 C.ar    1  UNL1        0.0795
     20 C          21.6484   75.3784    4.1842 C.ar    1  UNL1        0.0869
     21 O          21.9265   72.0118    3.4333 O.2     1  UNL1       -0.2464
     22 O          21.8418   74.0158    7.3942 O.2     1  UNL1       -0.2670
     23 H          21.9762   72.0963    5.8696 H       1  UNL1        0.1734
     24 O          21.3364   72.1828   -3.2888 O.3     1  UNL1       -0.2703
     25 P          21.2251   72.7622   -4.7871 P.3     1  UNL1        0.2208
     26 O          20.8630   74.3305   -4.7300 O.3     1  UNL1       -0.4371
     27 O          22.5171   72.5800   -5.4840 O.2     1  UNL1       -0.5170
     28 O          20.0693   71.9729   -5.5832 O.3     1  UNL1       -0.2865
     29 C          18.9399   72.6260   -6.1656 C.3     1  UNL1        0.2611
     30 C          17.6655   71.8553   -5.8126 C.3     1  UNL1        0.1582
     31 C          17.7482   70.4475   -6.4106 C.3     1  UNL1        0.1625
     32 C          17.9592   70.5586   -7.9231 C.3     1  UNL1        0.1686
     33 C          19.2226   71.3794   -8.1948 C.3     1  UNL1        0.1760
     34 O          16.5310   69.7454   -6.1485 O.3     1  UNL1       -0.3801
     35 O          16.8319   71.2056   -8.5163 O.3     1  UNL1       -0.3794
     36 O          19.0933   72.6657   -7.5859 O.3     1  UNL1       -0.3263
     37 H          16.5139   68.8443   -6.4991 H       1  UNL1        0.2105
     38 H          16.8978   71.3108   -9.4758 H       1  UNL1        0.2105
     39 C          16.3806   72.1057   -3.7573 C.2     1  UNL1        0.2231
     40 C          16.2484   72.0097   -2.2600 C.3     1  UNL1        0.0946
     41 N          17.5379   71.7618   -4.3560 N.am    1  UNL1       -0.2994
     42 O          15.4447   72.4930   -4.4254 O.2     1  UNL1       -0.2751
     43 H          18.2867   71.4531   -3.8222 H       1  UNL1        0.1496
     44 C          19.4077   71.5457   -9.7043 C.3     1  UNL1        0.1693
     45 O          18.7485   70.4768  -10.3864 O.3     1  UNL1       -0.3794
     46 H          18.8244   70.5179  -11.3495 H       1  UNL1        0.2105
@<TRIPOS>BOND
     1    29    30    1
     2    30    41    1
     3    30    31    1
     4    31    34    1
     5    31    32    1
     6    32    35    1
     7    32    33    1
     8    33    36    1
     9    33    44    1
    10    39    40    1
    11    39    42    2
    12    39    41   am
    13    41    43    1
    14    29    28    1
    15    34    37    1
    16    35    38    1
    17    29    36    1
    18    44    45    1
    19    45    46    1
    20    15     6    1
    21    15    16   ar
    22    16    21    2
    23    16    17   ar
    24    17    23    1
    25    17    18   ar
    26    18    19   ar
    27    19    20   ar
    28    15    20   ar
    29    18    22    2
    30     6     7    1
    31     6    11    1
    32     7     9    1
    33     7     8    1
    34     8    13    1
    35     9    10    1
    36     9    12    1
    37    10     5    1
    38    10    11    1
    39    12    14    1
    40     5     4    1
    41     4     1    1
    42     1     2    1
    43     1    24    1
    44     1     3    2
    45    24    25    1
    46    28    25    1
    47    25    26    1
    48    25    27    2
@<TRIPOS>MOLECULE
UD2
 46 48 0 0 0
SMALL
GASTEIGER

@<TRIPOS>ATOM
      1 P          22.7035   71.7762   -3.1424 P.3     1  UNL1        0.2189
      2 O          22.8933   72.2653   -1.6206 O.3     1  UNL1       -0.4371
      3 O          23.3007   70.4328   -3.3076 O.2     1  UNL1       -0.5170
      4 O          21.1330   71.7124   -3.4935 O.3     1  UNL1       -0.3112
      5 C          20.1297   72.3250   -2.6815 C.3     1  UNL1        0.1811
      6 C          17.9089   71.3436   -5.3352 C.3     1  UNL1        0.2383
      7 C          18.0548   70.0733   -4.4592 C.3     1  UNL1        0.1895
      8 O          16.8637   69.2851   -4.5015 O.3     1  UNL1       -0.3779
      9 C          18.2698   70.6740   -3.0484 C.3     1  UNL1        0.1713
     10 C          18.7555   72.1105   -3.3208 C.3     1  UNL1        0.1764
     11 O          18.8495   72.2674   -4.7456 O.3     1  UNL1       -0.3308
     12 O          17.0407   70.6907   -2.3206 O.3     1  UNL1       -0.3794
     13 H          16.9061   68.4790   -3.9694 H       1  UNL1        0.2106
     14 H          16.6588   69.8152   -2.1720 H       1  UNL1        0.2105
     15 N          18.2700   71.0559   -6.7251 N.ar    1  UNL1       -0.2551
     16 C          17.3042   70.7971   -7.6246 C.ar    1  UNL1        0.3323
     17 N          17.6071   70.5293   -8.9086 N.ar    1  UNL1       -0.2743
     18 C          18.8931   70.5185   -9.3146 C.ar    1  UNL1        0.2626
     19 C          19.9198   70.7902   -8.3786 C.ar    1  UNL1        0.0795
     20 C          19.5870   71.0597   -7.0987 C.ar    1  UNL1        0.0869
     21 O          16.1404   70.8037   -7.2727 O.2     1  UNL1       -0.2464
     22 O          19.1685   70.2767  -10.4766 O.2     1  UNL1       -0.2670
     23 H          16.8986   70.3437   -9.5440 H       1  UNL1        0.1734
     24 O          23.4328   72.8139   -4.1348 O.3     1  UNL1       -0.2703
     25 P          23.1677   74.3504   -4.5371 P.3     1  UNL1        0.2208
     26 O          22.6782   74.4266   -6.0695 O.3     1  UNL1       -0.4371
     27 O          22.1225   74.9177   -3.6573 O.2     1  UNL1       -0.5170
     28 O          24.5293   75.1925   -4.3656 O.3     1  UNL1       -0.2865
     29 C          25.5372   74.8567   -3.4103 C.3     1  UNL1        0.2611
     30 C          25.7321   76.0249   -2.4407 C.3     1  UNL1        0.1582
     31 C          26.2205   77.2490   -3.2214 C.3     1  UNL1        0.1625
     32 C          27.5112   76.8875   -3.9615 C.3     1  UNL1        0.1686
     33 C          27.2477   75.6857   -4.8727 C.3     1  UNL1        0.1760
     34 O          26.4754   78.3234   -2.3136 O.3     1  UNL1       -0.3801
     35 O          28.5280   76.5554   -3.0143 O.3     1  UNL1       -0.3794
     36 O          26.7668   74.5920   -4.0888 O.3     1  UNL1       -0.3263
     37 H          26.7878   79.1328   -2.7407 H       1  UNL1        0.2105
     38 H          29.3754   76.3146   -3.4140 H       1  UNL1        0.2105
     39 C          24.1802   75.8249   -0.5728 C.2     1  UNL1        0.2231
     40 C          22.8707   76.1452    0.0990 C.3     1  UNL1        0.0946
     41 N          24.4580   76.3368   -1.7880 N.am    1  UNL1       -0.2994
     42 O          24.9857   75.1054   -0.0199 O.2     1  UNL1       -0.2751
     43 H          23.8139   76.9113   -2.2308 H       1  UNL1        0.1496
     44 C          28.5472   75.2807   -5.5709 C.3     1  UNL1        0.1693
     45 O          29.1783   74.2319   -4.8332 O.3     1  UNL1       -0.3794
     46 H          30.0100   73.9244   -5.2189 H       1  UNL1        0.2105
@<TRIPOS>BOND
     1    29    30    1
     2    30    41    1
     3    30    31    1
     4    31    34    1
     5    31    32    1
     6    32    35    1
     7    32    33    1
     8    33    36    1
     9    33    44    1
    10    39    40    1
    11    39    42    2
    12    39    41   am
    13    41    43    1
    14    29    28    1
    15    34    37    1
    16    35    38    1
    17    29    36    1
    18    44    45    1
    19    45    46    1
    20    15     6    1
    21    15    16   ar
    22    16    21    2
    23    16    17   ar
    24    17    23    1
    25    17    18   ar
    26    18    19   ar
    27    19    20   ar
    28    15    20   ar
    29    18    22    2
    30     6     7    1
    31     6    11    1
    32     7     9    1
    33     7     8    1
    34     8    13    1
    35     9    10    1
    36     9    12    1
    37    10     5    1
    38    10    11    1
    39    12    14    1
    40     5     4    1
    41     4     1    1
    42     1     2    1
    43     1    24    1
    44     1     3    2
    45    24    25    1
    46    28    25    1
    47    25    26    1
    48    25    27    2
@<TRIPOS>MOLECULE
UD2
 46 48 0 0 0
SMALL
GASTEIGER

@<TRIPOS>ATOM
      1 P          21.9743   70.3353   -0.1948 P.3     1  UNL1        0.2189
      2 O          22.4127   68.8281    0.1619 O.3     1  UNL1       -0.4371
      3 O          23.1335   71.0688   -0.7491 O.2     1  UNL1       -0.5170
      4 O          20.7876   70.3055   -1.2833 O.3     1  UNL1       -0.3112
      5 C          20.9097   70.8878   -2.5823 C.3     1  UNL1        0.1811
      6 C          18.3652   71.0720   -5.1177 C.3     1  UNL1        0.2383
      7 C          18.1000   69.7260   -4.3964 C.3     1  UNL1        0.1895
      8 O          16.7084   69.4025   -4.4158 O.3     1  UNL1       -0.3779
      9 C          18.5763   70.0301   -2.9548 C.3     1  UNL1        0.1713
     10 C          19.5188   71.2381   -3.1166 C.3     1  UNL1        0.1764
     11 O          19.5951   71.5363   -4.5197 O.3     1  UNL1       -0.3308
     12 O          17.4653   70.3698   -2.1236 O.3     1  UNL1       -0.3794
     13 H          16.4920   68.5686   -3.9772 H       1  UNL1        0.2106
     14 H          16.8097   69.6650   -2.0346 H       1  UNL1        0.2105
     15 N          18.5383   70.8608   -6.5566 N.ar    1  UNL1       -0.2551
     16 C          17.4580   70.7922   -7.3547 C.ar    1  UNL1        0.3323
     17 N          17.5874   70.5986   -8.6806 N.ar    1  UNL1       -0.2743
     18 C          18.8116   70.4716   -9.2317 C.ar    1  UNL1        0.2626
     19 C          19.9575   70.5427   -8.4035 C.ar    1  UNL1        0.0795
     20 C          19.7984   70.7418   -7.0781 C.ar    1  UNL1        0.0869
     21 O          16.3480   70.9053   -6.8716 O.2     1  UNL1       -0.2464
     22 O          18.9301   70.2967  -10.4317 O.2     1  UNL1       -0.2670
     23 H          16.7980   70.5505   -9.2415 H       1  UNL1        0.1734
     24 O          21.4591   71.0748    1.1397 O.3     1  UNL1       -0.2703
     25 P          21.4254   72.6099    1.6250 P.3     1  UNL1        0.2208
     26 O          20.8078   72.6892    3.1103 O.3     1  UNL1       -0.4371
     27 O          22.8006   73.1551    1.6335 O.2     1  UNL1       -0.5170
     28 O          20.5123   73.4715    0.6169 O.3     1  UNL1       -0.2865
     29 C          20.7096   74.8679    0.3883 C.3     1  UNL1        0.2611
     30 C          22.2036   75.1512    0.2133 C.3     1  UNL1        0.1582
     31 C          22.9390   74.7829    1.5056 C.3     1  UNL1        0.1625
     32 C          22.3310   75.5715    2.6688 C.3     1  UNL1        0.1686
     33 C          20.8317   75.2718    2.7491 C.3     1  UNL1        0.1760
     34 O          24.3239   75.1129    1.3771 O.3     1  UNL1       -0.3801
     35 O          22.5282   76.9699    2.4526 O.3     1  UNL1       -0.3794
     36 O          20.2132   75.6079    1.5055 O.3     1  UNL1       -0.3263
     37 H          24.8515   74.9052    2.1605 H       1  UNL1        0.2105
     38 H          22.1664   77.5316    3.1523 H       1  UNL1        0.2105
     39 C          23.5794   74.8979   -1.7818 C.2     1  UNL1        0.2231
     40 C          24.1187   74.0726   -2.9206 C.3     1  UNL1        0.0946
     41 N          22.7275   74.3478   -0.8942 N.am    1  UNL1       -0.2994
     42 O          23.9117   76.0588   -1.6632 O.2     1  UNL1       -0.2751
     43 H          22.4607   73.4200   -0.9893 H       1  UNL1        0.1496
     44 C          20.2054   76.1017    3.8713 C.3     1  UNL1        0.1693
     45 O          19.6784   77.3150    3.3304 O.3     1  UNL1       -0.3794
     46 H          19.2650   77.8921    3.9869 H       1  UNL1        0.2105
@<TRIPOS>BOND
     1    29    30    1
     2    30    41    1
     3    30    31    1
     4    31    34    1
     5    31    32    1
     6    32    35    1
     7    32    33    1
     8    33    36    1
     9    33    44    1
    10    39    40    1
    11    39    42    2
    12    39    41   am
    13    41    43    1
    14    29    28    1
    15    34    37    1
    16    35    38    1
    17    29    36    1
    18    44    45    1
    19    45    46    1
    20    15     6    1
    21    15    16   ar
    22    16    21    2
    23    16    17   ar
    24    17    23    1
    25    17    18   ar
    26    18    19   ar
    27    19    20   ar
    28    15    20   ar
    29    18    22    2
    30     6     7    1
    31     6    11    1
    32     7     9    1
    33     7     8    1
    34     8    13    1
    35     9    10    1
    36     9    12    1
    37    10     5    1
    38    10    11    1
    39    12    14    1
    40     5     4    1
    41     4     1    1
    42     1     2    1
    43     1    24    1
    44     1     3    2
    45    24    25    1
    46    28    25    1
    47    25    26    1
    48    25    27    2
@<TRIPOS>MOLECULE
UD2
 46 48 0 0 0
SMALL
GASTEIGER

@<TRIPOS>ATOM
      1 P          19.3774   71.4929   -3.8536 P.3     1  UNL1        0.2189
      2 O          18.8827   72.9238   -3.3066 O.3     1  UNL1       -0.4371
      3 O          18.7810   70.4169   -3.0317 O.2     1  UNL1       -0.5170
      4 O          18.9161   71.3158   -5.3864 O.3     1  UNL1       -0.3112
      5 C          17.5698   71.5162   -5.8210 C.3     1  UNL1        0.1811
      6 C          19.0049   73.8371   -8.1642 C.3     1  UNL1        0.2383
      7 C          18.5103   72.6566   -9.0382 C.3     1  UNL1        0.1895
      8 O          18.1182   73.1112  -10.3349 O.3     1  UNL1       -0.3779
      9 C          17.2861   72.1494   -8.2371 C.3     1  UNL1        0.1713
     10 C          17.5222   72.6826   -6.8111 C.3     1  UNL1        0.1764
     11 O          18.7824   73.3720   -6.8152 O.3     1  UNL1       -0.3308
     12 O          16.0782   72.6864   -8.7788 O.3     1  UNL1       -0.3794
     13 H          17.8016   72.4090  -10.9191 H       1  UNL1        0.2106
     14 H          15.9096   72.4306   -9.6956 H       1  UNL1        0.2105
     15 N          20.4292   74.0886   -8.3953 N.ar    1  UNL1       -0.2551
     16 C          21.2645   73.0539   -8.5964 C.ar    1  UNL1        0.3323
     17 N          22.5781   73.2556   -8.8109 N.ar    1  UNL1       -0.2743
     18 C          23.0784   74.5078   -8.8292 C.ar    1  UNL1        0.2626
     19 C          22.2103   75.6063   -8.6200 C.ar    1  UNL1        0.0795
     20 C          20.8971   75.3750   -8.4115 C.ar    1  UNL1        0.0869
     21 O          20.8272   71.9194   -8.5828 O.2     1  UNL1       -0.2464
     22 O          24.2670   74.6917   -9.0237 O.2     1  UNL1       -0.2670
     23 H          23.1667   72.4983   -8.9530 H       1  UNL1        0.1734
     24 O          20.9831   71.4098   -3.7641 O.3     1  UNL1       -0.2703
     25 P          22.0140   70.8593   -2.6562 P.3     1  UNL1        0.2208
     26 O          21.4508   69.4837   -2.0364 O.3     1  UNL1       -0.4371
     27 O          23.3301   70.6138   -3.2854 O.2     1  UNL1       -0.5170
     28 O          22.1745   71.9509   -1.4835 O.3     1  UNL1       -0.2865
     29 C          21.0742   72.4247   -0.7050 C.3     1  UNL1        0.2611
     30 C          21.0328   73.9539   -0.7559 C.3     1  UNL1        0.1582
     31 C          22.3168   74.5117   -0.1342 C.3     1  UNL1        0.1625
     32 C          22.4506   73.9820    1.2962 C.3     1  UNL1        0.1686
     33 C          22.4374   72.4513    1.2679 C.3     1  UNL1        0.1760
     34 O          22.2544   75.9396   -0.1108 O.3     1  UNL1       -0.3801
     35 O          21.3574   74.4552    2.0850 O.3     1  UNL1       -0.3794
     36 O          21.2312   71.9983    0.6500 O.3     1  UNL1       -0.3263
     37 H          23.0370   76.3609    0.2703 H       1  UNL1        0.2105
     38 H          21.3773   74.1569    3.0051 H       1  UNL1        0.2105
     39 C          22.0495   74.6512   -2.8578 C.2     1  UNL1        0.2231
     40 C          21.9468   75.1040   -4.2906 C.3     1  UNL1        0.0946
     41 N          20.9321   74.3945   -2.1496 N.am    1  UNL1       -0.2994
     42 O          23.1388   74.5174   -2.3403 O.2     1  UNL1       -0.2751
     43 H          20.0610   74.5023   -2.5626 H       1  UNL1        0.1496
     44 C          22.5106   71.9145    2.6986 C.3     1  UNL1        0.1693
     45 O          21.1920   71.8227    3.2418 O.3     1  UNL1       -0.3794
     46 H          21.1620   71.4888    4.1488 H       1  UNL1        0.2105
@<TRIPOS>BOND
     1    29    30    1
     2    30    41    1
     3    30    31    1
     4    31    34    1
     5    31    32    1
     6    32    35    1
     7    32    33    1
     8    33    36    1
     9    33    44    1
    10    39    40    1
    11    39    42    2
    12    39    41   am
    13    41    43    1
    14    29    28    1
    15    34    37    1
    16    35    38    1
    17    29    36    1
    18    44    45    1
    19    45    46    1
    20    15     6    1
    21    15    16   ar
    22    16    21    2
    23    16    17   ar
    24    17    23    1
    25    17    18   ar
    26    18    19   ar
    27    19    20   ar
    28    15    20   ar
    29    18    22    2
    30     6     7    1
    31     6    11    1
    32     7     9    1
    33     7     8    1
    34     8    13    1
    35     9    10    1
    36     9    12    1
    37    10     5    1
    38    10    11    1
    39    12    14    1
    40     5     4    1
    41     4     1    1
    42     1     2    1
    43     1    24    1
    44     1     3    2
    45    24    25    1
    46    28    25    1
    47    25    26    1
    48    25    27    2
@<TRIPOS>MOLECULE
UD2
 46 48 0 0 0
SMALL
GASTEIGER

@<TRIPOS>ATOM
      1 P          19.5757   69.9342   -2.7299 P.3     1  UNL1        0.2189
      2 O          18.4413   68.8350   -2.4195 O.3     1  UNL1       -0.4371
      3 O          20.0639   69.7623   -4.1159 O.2     1  UNL1       -0.5170
      4 O          18.9539   71.4099   -2.5590 O.3     1  UNL1       -0.3112
      5 C          17.5804   71.7090   -2.8154 C.3     1  UNL1        0.1811
      6 C          17.6388   72.9966   -6.1733 C.3     1  UNL1        0.2383
      7 C          16.1442   72.6921   -5.8986 C.3     1  UNL1        0.1895
      8 O          15.2996   73.5908   -6.6202 O.3     1  UNL1       -0.3779
      9 C          16.0371   72.9376   -4.3736 C.3     1  UNL1        0.1713
     10 C          17.4878   72.8148   -3.8697 C.3     1  UNL1        0.1764
     11 O          18.3071   72.4810   -5.0014 O.3     1  UNL1       -0.3308
     12 O          15.5259   74.2460   -4.1136 O.3     1  UNL1       -0.3794
     13 H          14.3548   73.4400   -6.4815 H       1  UNL1        0.2106
     14 H          14.6370   74.3981   -4.4617 H       1  UNL1        0.2105
     15 N          18.0949   72.2979   -7.3770 N.ar    1  UNL1       -0.2551
     16 C          18.1421   72.9534   -8.5504 C.ar    1  UNL1        0.3323
     17 N          18.5569   72.3362   -9.6725 N.ar    1  UNL1       -0.2743
     18 C          18.9355   71.0425   -9.6352 C.ar    1  UNL1        0.2626
     19 C          18.8918   70.3406   -8.4066 C.ar    1  UNL1        0.0795
     20 C          18.4757   70.9855   -7.2964 C.ar    1  UNL1        0.0869
     21 O          17.8039   74.1203   -8.5988 O.2     1  UNL1       -0.2464
     22 O          19.3115   70.4828  -10.6501 O.2     1  UNL1       -0.2670
     23 H          18.5838   72.8233  -10.5105 H       1  UNL1        0.1734
     24 O          20.8009   69.7465   -1.7018 O.3     1  UNL1       -0.2703
     25 P          21.8048   70.7647   -0.9613 P.3     1  UNL1        0.2208
     26 O          21.0035   71.5749    0.1768 O.3     1  UNL1       -0.4371
     27 O          22.9095   70.0031   -0.3385 O.2     1  UNL1       -0.5170
     28 O          22.4064   71.8018   -2.0361 O.3     1  UNL1       -0.2865
     29 C          21.8959   73.1246   -2.2117 C.3     1  UNL1        0.2611
     30 C          22.6108   73.7967   -3.3863 C.3     1  UNL1        0.1582
     31 C          24.1039   73.9133   -3.0649 C.3     1  UNL1        0.1625
     32 C          24.2746   74.6933   -1.7584 C.3     1  UNL1        0.1686
     33 C          23.4953   73.9863   -0.6462 C.3     1  UNL1        0.1760
     34 O          24.7676   74.6059   -4.1248 O.3     1  UNL1       -0.3801
     35 O          23.7720   76.0202   -1.9252 O.3     1  UNL1       -0.3794
     36 O          22.1204   73.8832   -1.0216 O.3     1  UNL1       -0.3263
     37 H          25.7186   74.7152   -3.9877 H       1  UNL1        0.2105
     38 H          23.8475   76.5724   -1.1344 H       1  UNL1        0.2105
     39 C          21.8145   73.5140   -5.6719 C.2     1  UNL1        0.2231
     40 C          21.6303   72.6840   -6.9152 C.3     1  UNL1        0.0946
     41 N          22.4318   72.9886   -4.5953 N.am    1  UNL1       -0.2994
     42 O          21.4071   74.6564   -5.6391 O.2     1  UNL1       -0.2751
     43 H          22.7568   72.0750   -4.6207 H       1  UNL1        0.1496
     44 C          23.6117   74.7919    0.6491 C.3     1  UNL1        0.1693
     45 O          24.9478   75.2793    0.7894 O.3     1  UNL1       -0.3794
     46 H          25.0949   75.8002    1.5906 H       1  UNL1        0.2105
@<TRIPOS>BOND
     1    29    30    1
     2    30    41    1
     3    30    31    1
     4    31    34    1
     5    31    32    1
     6    32    35    1
     7    32    33    1
     8    33    36    1
     9    33    44    1
    10    39    40    1
    11    39    42    2
    12    39    41   am
    13    41    43    1
    14    29    28    1
    15    34    37    1
    16    35    38    1
    17    29    36    1
    18    44    45    1
    19    45    46    1
    20    15     6    1
    21    15    16   ar
    22    16    21    2
    23    16    17   ar
    24    17    23    1
    25    17    18   ar
    26    18    19   ar
    27    19    20   ar
    28    15    20   ar
    29    18    22    2
    30     6     7    1
    31     6    11    1
    32     7     9    1
    33     7     8    1
    34     8    13    1
    35     9    10    1
    36     9    12    1
    37    10     5    1
    38    10    11    1
    39    12    14    1
    40     5     4    1
    41     4     1    1
    42     1     2    1
    43     1    24    1
    44     1     3    2
    45    24    25    1
    46    28    25    1
    47    25    26    1
    48    25    27    2
@<TRIPOS>MOLECULE
UD2
 46 48 0 0 0
SMALL
GASTEIGER

@<TRIPOS>ATOM
      1 P          21.9839   70.3057   -0.2151 P.3     1  UNL1        0.2189
      2 O          22.3016   68.8937    0.4897 O.3     1  UNL1       -0.4371
      3 O          23.2098   70.8209   -0.8637 O.2     1  UNL1       -0.5170
      4 O          20.8337   70.1048   -1.3244 O.3     1  UNL1       -0.3112
      5 C          20.9558   70.5817   -2.6657 C.3     1  UNL1        0.1811
      6 C          18.4098   70.9827   -5.1744 C.3     1  UNL1        0.2383
      7 C          18.0797   69.6282   -4.4972 C.3     1  UNL1        0.1895
      8 O          16.6732   69.3773   -4.5173 O.3     1  UNL1       -0.3779
      9 C          18.5792   69.8580   -3.0498 C.3     1  UNL1        0.1713
     10 C          19.5817   71.0209   -3.1775 C.3     1  UNL1        0.1764
     11 O          19.6653   71.3626   -4.5703 O.3     1  UNL1       -0.3308
     12 O          17.4919   70.2256   -2.1993 O.3     1  UNL1       -0.3794
     13 H          16.4166   68.5411   -4.1056 H       1  UNL1        0.2106
     14 H          16.8014   69.5527   -2.1293 H       1  UNL1        0.2105
     15 N          18.5636   70.8122   -6.6209 N.ar    1  UNL1       -0.2551
     16 C          17.4740   70.7915   -7.4091 C.ar    1  UNL1        0.3323
     17 N          17.5857   70.6361   -8.7416 N.ar    1  UNL1       -0.2743
     18 C          18.8012   70.4998   -9.3095 C.ar    1  UNL1        0.2626
     19 C          19.9567   70.5208   -8.4919 C.ar    1  UNL1        0.0795
     20 C          19.8155   70.6823   -7.1595 C.ar    1  UNL1        0.0869
     21 O          16.3717   70.9135   -6.9107 O.2     1  UNL1       -0.2464
     22 O          18.9037   70.3595  -10.5155 O.2     1  UNL1       -0.2670
     23 H          16.7897   70.6223   -9.2951 H       1  UNL1        0.1734
     24 O          21.4803   71.3584    0.8945 O.3     1  UNL1       -0.2703
     25 P          21.5662   72.9602    1.0361 P.3     1  UNL1        0.2208
     26 O          20.4938   73.4601    2.1288 O.3     1  UNL1       -0.4371
     27 O          22.9271   73.3451    1.4696 O.2     1  UNL1       -0.5170
     28 O          21.2422   73.6427   -0.3858 O.3     1  UNL1       -0.2865
     29 C          21.9833   74.7481   -0.9056 C.3     1  UNL1        0.2611
     30 C          21.0221   75.7513   -1.5477 C.3     1  UNL1        0.1582
     31 C          20.3051   75.0785   -2.7223 C.3     1  UNL1        0.1625
     32 C          21.3496   74.5590   -3.7140 C.3     1  UNL1        0.1686
     33 C          22.2984   73.6014   -2.9882 C.3     1  UNL1        0.1760
     34 O          19.4598   76.0296   -3.3735 O.3     1  UNL1       -0.3801
     35 O          22.0929   75.6579   -4.2443 O.3     1  UNL1       -0.3794
     36 O          22.9088   74.2803   -1.8889 O.3     1  UNL1       -0.3263
     37 H          18.9732   75.6709   -4.1283 H       1  UNL1        0.2105
     38 H          22.7749   75.4016   -4.8809 H       1  UNL1        0.2105
     39 C          18.8714   75.5199   -0.4256 C.2     1  UNL1        0.2231
     40 C          17.8565   75.9669    0.5936 C.3     1  UNL1        0.0946
     41 N          20.0352   76.1868   -0.5562 N.am    1  UNL1       -0.2994
     42 O          18.6417   74.5589   -1.1297 O.2     1  UNL1       -0.2751
     43 H          20.2189   76.9558    0.0058 H       1  UNL1        0.1496
     44 C          23.3811   73.1240   -3.9579 C.3     1  UNL1        0.1693
     45 O          24.5580   73.9165   -3.7867 O.3     1  UNL1       -0.3794
     46 H          25.2878   73.6692   -4.3709 H       1  UNL1        0.2105
@<TRIPOS>BOND
     1    29    30    1
     2    30    41    1
     3    30    31    1
     4    31    34    1
     5    31    32    1
     6    32    35    1
     7    32    33    1
     8    33    36    1
     9    33    44    1
    10    39    40    1
    11    39    42    2
    12    39    41   am
    13    41    43    1
    14    29    28    1
    15    34    37    1
    16    35    38    1
    17    29    36    1
    18    44    45    1
    19    45    46    1
    20    15     6    1
    21    15    16   ar
    22    16    21    2
    23    16    17   ar
    24    17    23    1
    25    17    18   ar
    26    18    19   ar
    27    19    20   ar
    28    15    20   ar
    29    18    22    2
    30     6     7    1
    31     6    11    1
    32     7     9    1
    33     7     8    1
    34     8    13    1
    35     9    10    1
    36     9    12    1
    37    10     5    1
    38    10    11    1
    39    12    14    1
    40     5     4    1
    41     4     1    1
    42     1     2    1
    43     1    24    1
    44     1     3    2
    45    24    25    1
    46    28    25    1
    47    25    26    1
    48    25    27    2
@<TRIPOS>MOLECULE
UD2
 46 48 0 0 0
SMALL
GASTEIGER

@<TRIPOS>ATOM
      1 P          19.6279   70.2102   -3.0252 P.3     1  UNL1        0.2189
      2 O          18.6411   69.1363   -2.3438 O.3     1  UNL1       -0.4371
      3 O          19.8726   69.8317   -4.4344 O.2     1  UNL1       -0.5170
      4 O          18.9509   71.6705   -2.9714 O.3     1  UNL1       -0.3112
      5 C          17.5725   71.8996   -3.2698 C.3     1  UNL1        0.1811
      6 C          17.6620   72.9673   -6.7032 C.3     1  UNL1        0.2383
      7 C          16.1754   72.6141   -6.4436 C.3     1  UNL1        0.1895
      8 O          15.3114   73.4248   -7.2423 O.3     1  UNL1       -0.3779
      9 C          16.0181   72.9532   -4.9410 C.3     1  UNL1        0.1713
     10 C          17.4592   72.9292   -4.3967 C.3     1  UNL1        0.1764
     11 O          18.3214   72.5598   -5.4847 O.3     1  UNL1       -0.3308
     12 O          15.4437   74.2513   -4.7800 O.3     1  UNL1       -0.3794
     13 H          14.3708   73.2408   -7.1158 H       1  UNL1        0.2106
     14 H          14.5584   74.3401   -5.1578 H       1  UNL1        0.2105
     15 N          18.1792   72.2132   -7.8472 N.ar    1  UNL1       -0.2551
     16 C          17.7379   70.9635   -8.0760 C.ar    1  UNL1        0.3323
     17 N          18.1960   70.2472   -9.1197 N.ar    1  UNL1       -0.2743
     18 C          19.1096   70.7775   -9.9581 C.ar    1  UNL1        0.2626
     19 C          19.5820   72.0923   -9.7297 C.ar    1  UNL1        0.0795
     20 C          19.1023   72.7891   -8.6781 C.ar    1  UNL1        0.0869
     21 O          16.9142   70.4727   -7.3284 O.2     1  UNL1       -0.2464
     22 O          19.5247   70.1305  -10.9033 O.2     1  UNL1       -0.2670
     23 H          17.8682   69.3471   -9.2695 H       1  UNL1        0.1734
     24 O          21.0257   70.2378   -2.2261 O.3     1  UNL1       -0.2703
     25 P          22.3919   71.0738   -2.3919 P.3     1  UNL1        0.2208
     26 O          22.9630   71.4619   -0.9370 O.3     1  UNL1       -0.4371
     27 O          23.3901   70.2509   -3.1095 O.2     1  UNL1       -0.5170
     28 O          22.1005   72.4172   -3.2304 O.3     1  UNL1       -0.2865
     29 C          23.1251   73.3418   -3.6001 C.3     1  UNL1        0.2611
     30 C          22.7836   74.7293   -3.0516 C.3     1  UNL1        0.1582
     31 C          21.4734   75.2102   -3.6829 C.3     1  UNL1        0.1625
     32 C          21.6228   75.2090   -5.2067 C.3     1  UNL1        0.1686
     33 C          22.0090   73.8025   -5.6722 C.3     1  UNL1        0.1760
     34 O          21.1849   76.5357   -3.2324 O.3     1  UNL1       -0.3801
     35 O          22.6418   76.1352   -5.5875 O.3     1  UNL1       -0.3794
     36 O          23.2189   73.4037   -5.0247 O.3     1  UNL1       -0.3263
     37 H          20.3665   76.9038   -3.5929 H       1  UNL1        0.2105
     38 H          22.7912   76.1862   -6.5420 H       1  UNL1        0.2105
     39 C          23.6985   74.8224   -0.7951 C.2     1  UNL1        0.2231
     40 C          23.5394   74.7471    0.7008 C.3     1  UNL1        0.0946
     41 N          22.6281   74.6557   -1.5967 N.am    1  UNL1       -0.2994
     42 O          24.7909   75.0331   -1.2792 O.2     1  UNL1       -0.2751
     43 H          21.7547   74.4863   -1.2100 H       1  UNL1        0.1496
     44 C          22.2186   73.8067   -7.1876 C.3     1  UNL1        0.1693
     45 O          22.7309   72.5385   -7.6019 O.3     1  UNL1       -0.3794
     46 H          22.8884   72.4691   -8.5534 H       1  UNL1        0.2105
@<TRIPOS>BOND
     1    29    30    1
     2    30    41    1
     3    30    31    1
     4    31    34    1
     5    31    32    1
     6    32    35    1
     7    32    33    1
     8    33    36    1
     9    33    44    1
    10    39    40    1
    11    39    42    2
    12    39    41   am
    13    41    43    1
    14    29    28    1
    15    34    37    1
    16    35    38    1
    17    29    36    1
    18    44    45    1
    19    45    46    1
    20    15     6    1
    21    15    16   ar
    22    16    21    2
    23    16    17   ar
    24    17    23    1
    25    17    18   ar
    26    18    19   ar
    27    19    20   ar
    28    15    20   ar
    29    18    22    2
    30     6     7    1
    31     6    11    1
    32     7     9    1
    33     7     8    1
    34     8    13    1
    35     9    10    1
    36     9    12    1
    37    10     5    1
    38    10    11    1
    39    12    14    1
    40     5     4    1
    41     4     1    1
    42     1     2    1
    43     1    24    1
    44     1     3    2
    45    24    25    1
    46    28    25    1
    47    25    26    1
    48    25    27    2
@<TRIPOS>MOLECULE
UD2
 46 48 0 0 0
SMALL
GASTEIGER

@<TRIPOS>ATOM
      1 P          21.7213   70.6481   -2.5783 P.3     1  UNL1        0.2189
      2 O          23.1973   70.7479   -3.2130 O.3     1  UNL1       -0.4371
      3 O          21.7055   69.6089   -1.5254 O.2     1  UNL1       -0.5170
      4 O          21.3162   72.0686   -1.9366 O.3     1  UNL1       -0.3112
      5 C          20.8714   72.2129   -0.5865 C.3     1  UNL1        0.1811
      6 C          21.7891   74.6433    1.9011 C.3     1  UNL1        0.2383
      7 C          23.1336   74.2153    1.2597 C.3     1  UNL1        0.1895
      8 O          24.0742   75.2908    1.2814 O.3     1  UNL1       -0.3779
      9 C          22.7099   73.8813   -0.1916 C.3     1  UNL1        0.1713
     10 C          21.1940   73.6251   -0.0918 C.3     1  UNL1        0.1764
     11 O          20.8285   73.7538    1.2914 O.3     1  UNL1       -0.3308
     12 O          22.9748   74.9876   -1.0558 O.3     1  UNL1       -0.3794
     13 H          24.9314   75.0718    0.8916 H       1  UNL1        0.2106
     14 H          23.9089   75.2305   -1.1100 H       1  UNL1        0.2105
     15 N          21.8247   74.4484    3.3522 N.ar    1  UNL1       -0.2551
     16 C          21.5893   73.2283    3.8668 C.ar    1  UNL1        0.3323
     17 N          21.6154   73.0204    5.1965 N.ar    1  UNL1       -0.2743
     18 C          21.8819   74.0401    6.0378 C.ar    1  UNL1        0.2626
     19 C          22.1326   75.3294    5.5099 C.ar    1  UNL1        0.0795
     20 C          22.1042   75.5082    4.1724 C.ar    1  UNL1        0.0869
     21 O          21.3479   72.2996    3.1201 O.2     1  UNL1       -0.2464
     22 O          21.9063   73.8531    7.2416 O.2     1  UNL1       -0.2670
     23 H          21.4422   72.1346    5.5509 H       1  UNL1        0.1734
     24 O          20.6661   70.2605   -3.7314 O.3     1  UNL1       -0.2703
     25 P          19.1072   69.8570   -3.7303 P.3     1  UNL1        0.2208
     26 O          18.9676   68.2558   -3.8324 O.3     1  UNL1       -0.4371
     27 O          18.4763   70.3277   -2.4778 O.2     1  UNL1       -0.5170
     28 O          18.3750   70.5414   -4.9906 O.3     1  UNL1       -0.2865
     29 C          18.9436   71.6258   -5.7267 C.3     1  UNL1        0.2611
     30 C          17.9005   72.7335   -5.8930 C.3     1  UNL1        0.1582
     31 C          16.7178   72.1918   -6.7019 C.3     1  UNL1        0.1625
     32 C          17.2297   71.6698   -8.0472 C.3     1  UNL1        0.1686
     33 C          18.2989   70.6028   -7.7977 C.3     1  UNL1        0.1760
     34 O          15.7721   73.2402   -6.9250 O.3     1  UNL1       -0.3801
     35 O          17.7955   72.7483   -8.7941 O.3     1  UNL1       -0.3794
     36 O          19.3549   71.1629   -7.0147 O.3     1  UNL1       -0.3263
     37 H          14.9951   72.9672   -7.4318 H       1  UNL1        0.2105
     38 H          18.1415   72.4893   -9.6597 H       1  UNL1        0.2105
     39 C          16.3319   72.6122   -4.0322 C.2     1  UNL1        0.2231
     40 C          15.8513   73.0581   -2.6762 C.3     1  UNL1        0.0946
     41 N          17.4335   73.1680   -4.5740 N.am    1  UNL1       -0.2994
     42 O          15.7270   71.7521   -4.6377 O.2     1  UNL1       -0.2751
     43 H          17.9169   73.8564   -4.0908 H       1  UNL1        0.1496
     44 C          18.8582   70.1187   -9.1369 C.3     1  UNL1        0.1693
     45 O          20.2443   69.8039   -8.9892 O.3     1  UNL1       -0.3794
     46 H          20.6655   69.4896   -9.8009 H       1  UNL1        0.2105
@<TRIPOS>BOND
     1    29    30    1
     2    30    41    1
     3    30    31    1
     4    31    34    1
     5    31    32    1
     6    32    35    1
     7    32    33    1
     8    33    36    1
     9    33    44    1
    10    39    40    1
    11    39    42    2
    12    39    41   am
    13    41    43    1
    14    29    28    1
    15    34    37    1
    16    35    38    1
    17    29    36    1
    18    44    45    1
    19    45    46    1
    20    15     6    1
    21    15    16   ar
    22    16    21    2
    23    16    17   ar
    24    17    23    1
    25    17    18   ar
    26    18    19   ar
    27    19    20   ar
    28    15    20   ar
    29    18    22    2
    30     6     7    1
    31     6    11    1
    32     7     9    1
    33     7     8    1
    34     8    13    1
    35     9    10    1
    36     9    12    1
    37    10     5    1
    38    10    11    1
    39    12    14    1
    40     5     4    1
    41     4     1    1
    42     1     2    1
    43     1    24    1
    44     1     3    2
    45    24    25    1
    46    28    25    1
    47    25    26    1
    48    25    27    2
@<TRIPOS>MOLECULE
UD2
 46 48 0 0 0
SMALL
GASTEIGER

@<TRIPOS>ATOM
      1 P          22.2799   71.2149   -3.2149 P.3     1  UNL1        0.2189
      2 O          23.6571   70.3816   -3.2200 O.3     1  UNL1       -0.4371
      3 O          21.1428   70.2912   -3.4216 O.2     1  UNL1       -0.5170
      4 O          22.1118   71.9648   -1.7996 O.3     1  UNL1       -0.3112
      5 C          22.1559   71.2793   -0.5468 C.3     1  UNL1        0.1811
      6 C          22.0071   73.6112    2.1875 C.3     1  UNL1        0.2383
      7 C          21.8252   74.4846    0.9202 C.3     1  UNL1        0.1895
      8 O          21.0049   75.6212    1.1975 O.3     1  UNL1       -0.3779
      9 C          21.1097   73.5097   -0.0467 C.3     1  UNL1        0.1713
     10 C          21.4366   72.1133    0.5162 C.3     1  UNL1        0.1764
     11 O          22.2942   72.3005    1.6533 O.3     1  UNL1       -0.3308
     12 O          19.6995   73.7378   -0.0320 O.3     1  UNL1       -0.3794
     13 H          20.8623   76.1989    0.4356 H       1  UNL1        0.2106
     14 H          19.4405   74.6231   -0.3210 H       1  UNL1        0.2105
     15 N          23.1297   74.0978    2.9926 N.ar    1  UNL1       -0.2551
     16 C          23.1933   73.7926    4.3009 C.ar    1  UNL1        0.3323
     17 N          24.2133   74.2264    5.0647 N.ar    1  UNL1       -0.2743
     18 C          25.1943   74.9774    4.5243 C.ar    1  UNL1        0.2626
     19 C          25.1407   75.3054    3.1481 C.ar    1  UNL1        0.0795
     20 C          24.1086   74.8534    2.4052 C.ar    1  UNL1        0.0869
     21 O          22.3158   73.1160    4.8015 O.2     1  UNL1       -0.2464
     22 O          26.1183   75.3704    5.2144 O.2     1  UNL1       -0.2670
     23 H          24.2431   73.9982    6.0066 H       1  UNL1        0.1734
     24 O          22.3078   72.3056   -4.3994 O.3     1  UNL1       -0.2703
     25 P          21.2054   73.2897   -5.0391 P.3     1  UNL1        0.2208
     26 O          20.4086   74.0418   -3.8588 O.3     1  UNL1       -0.4371
     27 O          21.8761   74.2912   -5.8967 O.2     1  UNL1       -0.5170
     28 O          20.1697   72.4317   -5.9245 O.3     1  UNL1       -0.2865
     29 C          18.9377   72.9640   -6.4147 C.3     1  UNL1        0.2611
     30 C          17.7738   72.1083   -5.9087 C.3     1  UNL1        0.1582
     31 C          17.9188   70.6868   -6.4607 C.3     1  UNL1        0.1625
     32 C          17.9729   70.7474   -7.9897 C.3     1  UNL1        0.1686
     33 C          19.1294   71.6557   -8.4155 C.3     1  UNL1        0.1760
     34 O          16.7971   69.9000   -6.0533 O.3     1  UNL1       -0.3801
     35 O          16.7425   71.2733   -8.4907 O.3     1  UNL1       -0.3794
     36 O          18.9497   72.9529   -7.8437 O.3     1  UNL1       -0.3263
     37 H          16.8234   68.9859   -6.3677 H       1  UNL1        0.2105
     38 H          16.7065   71.3408   -9.4551 H       1  UNL1        0.2105
     39 C          16.6398   72.1020   -3.7520 C.2     1  UNL1        0.2231
     40 C          16.6612   72.0619   -2.2465 C.3     1  UNL1        0.0946
     41 N          17.7955   72.0695   -4.4443 N.am    1  UNL1       -0.2994
     42 O          15.5815   72.1636   -4.3424 O.2     1  UNL1       -0.2751
     43 H          18.6418   72.0213   -3.9727 H       1  UNL1        0.1496
     44 C          19.1534   71.7693   -9.9410 C.3     1  UNL1        0.1693
     45 O          18.3108   72.8478  -10.3524 O.3     1  UNL1       -0.3794
     46 H          18.2776   72.9785  -11.3099 H       1  UNL1        0.2105
@<TRIPOS>BOND
     1    29    30    1
     2    30    41    1
     3    30    31    1
     4    31    34    1
     5    31    32    1
     6    32    35    1
     7    32    33    1
     8    33    36    1
     9    33    44    1
    10    39    40    1
    11    39    42    2
    12    39    41   am
    13    41    43    1
    14    29    28    1
    15    34    37    1
    16    35    38    1
    17    29    36    1
    18    44    45    1
    19    45    46    1
    20    15     6    1
    21    15    16   ar
    22    16    21    2
    23    16    17   ar
    24    17    23    1
    25    17    18   ar
    26    18    19   ar
    27    19    20   ar
    28    15    20   ar
    29    18    22    2
    30     6     7    1
    31     6    11    1
    32     7     9    1
    33     7     8    1
    34     8    13    1
    35     9    10    1
    36     9    12    1
    37    10     5    1
    38    10    11    1
    39    12    14    1
    40     5     4    1
    41     4     1    1
    42     1     2    1
    43     1    24    1
    44     1     3    2
    45    24    25    1
    46    28    25    1
    47    25    26    1
    48    25    27    2
