@<TRIPOS>MOLECULE
UD2
 46 48 0 0 0
SMALL
GASTEIGER

@<TRIPOS>ATOM
      1 P          20.7853   71.0333   -3.1219 P.3     1  UNL1        0.2189
      2 O          21.0066   70.4923   -1.6219 O.3     1  UNL1       -0.4371
      3 O          20.8211   69.8960   -4.0674 O.2     1  UNL1       -0.5170
      4 O          19.3563   71.7693   -3.2213 O.3     1  UNL1       -0.3112
      5 C          18.2069   71.3368   -2.4911 C.3     1  UNL1        0.1811
      6 C          16.7958   70.5850   -5.7129 C.3     1  UNL1        0.2383
      7 C          16.9584   69.2048   -5.0270 C.3     1  UNL1        0.1895
      8 O          15.9501   68.2938   -5.4687 O.3     1  UNL1       -0.3779
      9 C          16.7657   69.5597   -3.5322 C.3     1  UNL1        0.1713
     10 C          17.0552   71.0713   -3.4638 C.3     1  UNL1        0.1764
     11 O          17.4238   71.4966   -4.7854 O.3     1  UNL1       -0.3308
     12 O          15.4240   69.2879   -3.1239 O.3     1  UNL1       -0.3794
     13 H          16.0100   67.4159   -5.0681 H       1  UNL1        0.2106
     14 H          15.1686   68.3589   -3.2027 H       1  UNL1        0.2105
     15 N          17.4874   70.6042   -7.0038 N.ar    1  UNL1       -0.2551
     16 C          16.7735   70.5636   -8.1429 C.ar    1  UNL1        0.3323
     17 N          17.3827   70.5798   -9.3433 N.ar    1  UNL1       -0.2743
     18 C          18.7277   70.6391   -9.4211 C.ar    1  UNL1        0.2626
     19 C          19.4915   70.6832   -8.2300 C.ar    1  UNL1        0.0795
     20 C          18.8543   70.6701   -7.0404 C.ar    1  UNL1        0.0869
     21 O          15.5600   70.5102   -8.0879 O.2     1  UNL1       -0.2464
     22 O          19.2802   70.6541  -10.5069 O.2     1  UNL1       -0.2670
     23 H          16.8529   70.5487  -10.1548 H       1  UNL1        0.1734
     24 O          21.9532   72.0779   -3.4937 O.3     1  UNL1       -0.2703
     25 P          23.5307   72.1496   -3.1788 P.3     1  UNL1        0.2208
     26 O          24.1409   70.6594   -3.1548 O.3     1  UNL1       -0.4371
     27 O          24.2080   72.9424   -4.2282 O.2     1  UNL1       -0.5170
     28 O          23.7607   72.8473   -1.7460 O.3     1  UNL1       -0.2865
     29 C          22.7729   73.6584   -1.1076 C.3     1  UNL1        0.2611
     30 C          23.4500   74.8571   -0.4388 C.3     1  UNL1        0.1582
     31 C          24.4084   74.3525    0.6443 C.3     1  UNL1        0.1625
     32 C          23.6265   73.4955    1.6437 C.3     1  UNL1        0.1686
     33 C          22.9425   72.3489    0.8944 C.3     1  UNL1        0.1760
     34 O          24.9902   75.4674    1.3239 O.3     1  UNL1       -0.3801
     35 O          22.6392   74.2991    2.2922 O.3     1  UNL1       -0.3794
     36 O          22.0894   72.8858   -0.1185 O.3     1  UNL1       -0.3263
     37 H          25.6098   75.2209    2.0242 H       1  UNL1        0.2105
     38 H          22.1043   73.8195    2.9401 H       1  UNL1        0.2105
     39 C          23.9104   76.9149   -1.6601 C.2     1  UNL1        0.2231
     40 C          24.6819   77.6970   -2.6905 C.3     1  UNL1        0.0946
     41 N          24.2007   75.6172   -1.4415 N.am    1  UNL1       -0.2994
     42 O          23.0268   77.4530   -1.0262 O.2     1  UNL1       -0.2751
     43 H          24.9064   75.1862   -1.9487 H       1  UNL1        0.1496
     44 C          22.1106   71.5225    1.8770 C.3     1  UNL1        0.1693
     45 O          21.5956   70.3671    1.2120 O.3     1  UNL1       -0.3794
     46 H          21.0569   69.7954    1.7759 H       1  UNL1        0.2105
@<TRIPOS>BOND
     1    29    30    1
     2    30    41    1
     3    30    31    1
     4    31    34    1
     5    31    32    1
     6    32    35    1
     7    32    33    1
     8    33    36    1
     9    33    44    1
    10    39    40    1
    11    39    42    2
    12    39    41   am
    13    41    43    1
    14    29    28    1
    15    34    37    1
    16    35    38    1
    17    29    36    1
    18    44    45    1
    19    45    46    1
    20    15     6    1
    21    15    16   ar
    22    16    21    2
    23    16    17   ar
    24    17    23    1
    25    17    18   ar
    26    18    19   ar
    27    19    20   ar
    28    15    20   ar
    29    18    22    2
    30     6     7    1
    31     6    11    1
    32     7     9    1
    33     7     8    1
    34     8    13    1
    35     9    10    1
    36     9    12    1
    37    10     5    1
    38    10    11    1
    39    12    14    1
    40     5     4    1
    41     4     1    1
    42     1     2    1
    43     1    24    1
    44     1     3    2
    45    24    25    1
    46    28    25    1
    47    25    26    1
    48    25    27    2
@<TRIPOS>MOLECULE
UD2
 46 48 0 0 0
SMALL
GASTEIGER

@<TRIPOS>ATOM
      1 P          23.4265   72.0274   -3.3361 P.3     1  UNL1        0.2189
      2 O          24.2305   72.8401   -4.4695 O.3     1  UNL1       -0.4371
      3 O          24.1932   70.8206   -2.9559 O.2     1  UNL1       -0.5170
      4 O          23.2268   72.9661   -2.0428 O.3     1  UNL1       -0.3112
      5 C          21.9542   73.1873   -1.4321 C.3     1  UNL1        0.1811
      6 C          23.2796   72.0672    1.7184 C.3     1  UNL1        0.2383
      7 C          22.5329   73.3829    2.0554 C.3     1  UNL1        0.1895
      8 O          22.0077   73.3454    3.3837 O.3     1  UNL1       -0.3779
      9 C          21.3909   73.3857    1.0098 C.3     1  UNL1        0.1713
     10 C          21.8922   72.4395   -0.0979 C.3     1  UNL1        0.1764
     11 O          23.2073   72.0000    0.2776 O.3     1  UNL1       -0.3308
     12 O          20.1842   72.8849    1.5876 O.3     1  UNL1       -0.3794
     13 H          21.5321   74.1466    3.6417 H       1  UNL1        0.2106
     14 H          19.8550   73.4100    2.3295 H       1  UNL1        0.2105
     15 N          24.6735   72.1369    2.1626 N.ar    1  UNL1       -0.2551
     16 C          25.4046   71.0109    2.2422 C.ar    1  UNL1        0.3323
     17 N          26.6879   71.0453    2.6475 N.ar    1  UNL1       -0.2743
     18 C          27.2633   72.2187    2.9802 C.ar    1  UNL1        0.2626
     19 C          26.5057   73.4119    2.9001 C.ar    1  UNL1        0.0795
     20 C          25.2226   73.3484    2.4865 C.ar    1  UNL1        0.0869
     21 O          24.8989   69.9459    1.9451 O.2     1  UNL1       -0.2464
     22 O          28.4248   72.2513    3.3468 O.2     1  UNL1       -0.2670
     23 H          27.2005   70.2240    2.7003 H       1  UNL1        0.1734
     24 O          21.9861   71.5903   -3.9086 O.3     1  UNL1       -0.2703
     25 P          21.0111   72.1769   -5.0480 P.3     1  UNL1        0.2208
     26 O          21.0049   73.7856   -4.9722 O.3     1  UNL1       -0.4371
     27 O          21.4936   71.7483   -6.3791 O.2     1  UNL1       -0.5170
     28 O          19.5177   71.6224   -4.8139 O.3     1  UNL1       -0.2865
     29 C          19.1415   70.2678   -5.0683 C.3     1  UNL1        0.2611
     30 C          18.0747   70.2309   -6.1653 C.3     1  UNL1        0.1582
     31 C          16.8281   70.9762   -5.6785 C.3     1  UNL1        0.1625
     32 C          16.3419   70.3383   -4.3743 C.3     1  UNL1        0.1686
     33 C          17.4758   70.3710   -3.3461 C.3     1  UNL1        0.1760
     34 O          15.8003   70.8839   -6.6675 O.3     1  UNL1       -0.3801
     35 O          15.9575   68.9842   -4.6192 O.3     1  UNL1       -0.3794
     36 O          18.6146   69.6876   -3.8733 O.3     1  UNL1       -0.3263
     37 H          14.9802   71.3356   -6.4253 H       1  UNL1        0.2105
     38 H          15.6388   68.5170   -3.8342 H       1  UNL1        0.2105
     39 C          18.5719   70.2243   -8.5508 C.2     1  UNL1        0.2231
     40 C          19.1035   70.8899   -9.7929 C.3     1  UNL1        0.0946
     41 N          18.5922   70.8790   -7.3731 N.am    1  UNL1       -0.2994
     42 O          18.1250   69.0978   -8.6100 O.2     1  UNL1       -0.2751
     43 H          18.9503   71.7793   -7.3251 H       1  UNL1        0.1496
     44 C          17.0174   69.6818   -2.0595 C.3     1  UNL1        0.1693
     45 O          17.3466   68.2924   -2.1193 O.3     1  UNL1       -0.3794
     46 H          17.0845   67.7914   -1.3348 H       1  UNL1        0.2105
@<TRIPOS>BOND
     1    29    30    1
     2    30    41    1
     3    30    31    1
     4    31    34    1
     5    31    32    1
     6    32    35    1
     7    32    33    1
     8    33    36    1
     9    33    44    1
    10    39    40    1
    11    39    42    2
    12    39    41   am
    13    41    43    1
    14    29    28    1
    15    34    37    1
    16    35    38    1
    17    29    36    1
    18    44    45    1
    19    45    46    1
    20    15     6    1
    21    15    16   ar
    22    16    21    2
    23    16    17   ar
    24    17    23    1
    25    17    18   ar
    26    18    19   ar
    27    19    20   ar
    28    15    20   ar
    29    18    22    2
    30     6     7    1
    31     6    11    1
    32     7     9    1
    33     7     8    1
    34     8    13    1
    35     9    10    1
    36     9    12    1
    37    10     5    1
    38    10    11    1
    39    12    14    1
    40     5     4    1
    41     4     1    1
    42     1     2    1
    43     1    24    1
    44     1     3    2
    45    24    25    1
    46    28    25    1
    47    25    26    1
    48    25    27    2
@<TRIPOS>MOLECULE
UD2
 46 48 0 0 0
SMALL
GASTEIGER

@<TRIPOS>ATOM
      1 P          20.6834   71.0320   -2.6731 P.3     1  UNL1        0.2189
      2 O          20.5003   70.5750   -1.1405 O.3     1  UNL1       -0.4371
      3 O          21.1884   69.8931   -3.4711 O.2     1  UNL1       -0.5170
      4 O          19.2640   71.5131   -3.2628 O.3     1  UNL1       -0.3112
      5 C          18.0308   71.3321   -2.5644 C.3     1  UNL1        0.1811
      6 C          16.7217   70.5542   -5.8229 C.3     1  UNL1        0.2383
      7 C          16.8599   69.1797   -5.1200 C.3     1  UNL1        0.1895
      8 O          15.8645   68.2664   -5.5857 O.3     1  UNL1       -0.3779
      9 C          16.6203   69.5481   -3.6353 C.3     1  UNL1        0.1713
     10 C          16.9102   71.0598   -3.5709 C.3     1  UNL1        0.1764
     11 O          17.3215   71.4729   -4.8838 O.3     1  UNL1       -0.3308
     12 O          15.2658   69.2820   -3.2676 O.3     1  UNL1       -0.3794
     13 H          15.9100   67.3920   -5.1757 H       1  UNL1        0.2106
     14 H          15.0113   68.3527   -3.3464 H       1  UNL1        0.2105
     15 N          17.4541   70.5608   -7.0912 N.ar    1  UNL1       -0.2551
     16 C          16.7756   70.5684   -8.2524 C.ar    1  UNL1        0.3323
     17 N          17.4227   70.5745   -9.4328 N.ar    1  UNL1       -0.2743
     18 C          18.7708   70.5749   -9.4678 C.ar    1  UNL1        0.2626
     19 C          19.4977   70.5681   -8.2530 C.ar    1  UNL1        0.0795
     20 C          18.8230   70.5663   -7.0842 C.ar    1  UNL1        0.0869
     21 O          15.5598   70.5683   -8.2360 O.2     1  UNL1       -0.2464
     22 O          19.3577   70.5808  -10.5356 O.2     1  UNL1       -0.2670
     23 H          16.9182   70.5787  -10.2608 H       1  UNL1        0.1734
     24 O          21.7353   72.2489   -2.7486 O.3     1  UNL1       -0.2703
     25 P          23.2495   72.4509   -2.2393 P.3     1  UNL1        0.2208
     26 O          23.7685   71.0919   -1.5482 O.3     1  UNL1       -0.4371
     27 O          24.1177   72.7807   -3.3907 O.2     1  UNL1       -0.5170
     28 O          23.2996   73.6515   -1.1675 O.3     1  UNL1       -0.2865
     29 C          24.3425   74.6276   -1.1402 C.3     1  UNL1        0.2611
     30 C          24.5586   75.1047    0.2980 C.3     1  UNL1        0.1582
     31 C          23.2780   75.7780    0.8012 C.3     1  UNL1        0.1625
     32 C          22.9133   76.9270   -0.1428 C.3     1  UNL1        0.1686
     33 C          22.7606   76.3794   -1.5644 C.3     1  UNL1        0.1760
     34 O          23.4946   76.2918    2.1175 O.3     1  UNL1       -0.3801
     35 O          23.9480   77.9120   -0.1184 O.3     1  UNL1       -0.3794
     36 O          23.9755   75.7393   -1.9597 O.3     1  UNL1       -0.3263
     37 H          22.7228   76.7319    2.4993 H       1  UNL1        0.2105
     38 H          23.7833   78.6707   -0.6957 H       1  UNL1        0.2105
     39 C          23.8906   73.3055    1.7995 C.2     1  UNL1        0.2231
     40 C          24.2164   72.1256    2.6771 C.3     1  UNL1        0.0946
     41 N          24.8764   73.9572    1.1517 N.am    1  UNL1       -0.2994
     42 O          22.7400   73.6700    1.6754 O.2     1  UNL1       -0.2751
     43 H          25.7965   73.6667    1.2514 H       1  UNL1        0.1496
     44 C          22.4548   77.5310   -2.5241 C.3     1  UNL1        0.1693
     45 O          22.8880   77.1826   -3.8406 O.3     1  UNL1       -0.3794
     46 H          22.7254   77.8680   -4.5030 H       1  UNL1        0.2105
@<TRIPOS>BOND
     1    29    30    1
     2    30    41    1
     3    30    31    1
     4    31    34    1
     5    31    32    1
     6    32    35    1
     7    32    33    1
     8    33    36    1
     9    33    44    1
    10    39    40    1
    11    39    42    2
    12    39    41   am
    13    41    43    1
    14    29    28    1
    15    34    37    1
    16    35    38    1
    17    29    36    1
    18    44    45    1
    19    45    46    1
    20    15     6    1
    21    15    16   ar
    22    16    21    2
    23    16    17   ar
    24    17    23    1
    25    17    18   ar
    26    18    19   ar
    27    19    20   ar
    28    15    20   ar
    29    18    22    2
    30     6     7    1
    31     6    11    1
    32     7     9    1
    33     7     8    1
    34     8    13    1
    35     9    10    1
    36     9    12    1
    37    10     5    1
    38    10    11    1
    39    12    14    1
    40     5     4    1
    41     4     1    1
    42     1     2    1
    43     1    24    1
    44     1     3    2
    45    24    25    1
    46    28    25    1
    47    25    26    1
    48    25    27    2
@<TRIPOS>MOLECULE
UD2
 46 48 0 0 0
SMALL
GASTEIGER

@<TRIPOS>ATOM
      1 P          23.3750   71.6952   -2.5335 P.3     1  UNL1        0.2189
      2 O          23.9259   73.1938   -2.3283 O.3     1  UNL1       -0.4371
      3 O          24.4610   70.8368   -3.0554 O.2     1  UNL1       -0.5170
      4 O          22.8629   71.1139   -1.1215 O.3     1  UNL1       -0.3112
      5 C          23.6832   71.0781    0.0477 C.3     1  UNL1        0.1811
      6 C          22.7939   72.5171    3.2218 C.3     1  UNL1        0.2383
      7 C          22.0277   73.3700    2.1789 C.3     1  UNL1        0.1895
      8 O          20.8027   73.8634    2.7243 O.3     1  UNL1       -0.3779
      9 C          21.7568   72.3416    1.0535 C.3     1  UNL1        0.1713
     10 C          22.8053   71.2382    1.2914 C.3     1  UNL1        0.1764
     11 O          23.6105   71.6468    2.4086 O.3     1  UNL1       -0.3308
     12 O          20.4358   71.8105    1.1706 O.3     1  UNL1       -0.3794
     13 H          20.2875   74.4035    2.1098 H       1  UNL1        0.2106
     14 H          19.7362   72.4724    1.0880 H       1  UNL1        0.2105
     15 N          23.6320   73.3686    4.0690 N.ar    1  UNL1       -0.2551
     16 C          23.1728   73.7763    5.2655 C.ar    1  UNL1        0.3323
     17 N          23.9213   74.5594    6.0647 N.ar    1  UNL1       -0.2743
     18 C          25.1524   74.9476    5.6744 C.ar    1  UNL1        0.2626
     19 C          25.6488   74.5249    4.4178 C.ar    1  UNL1        0.0795
     20 C          24.8784   73.7367    3.6389 C.ar    1  UNL1        0.0869
     21 O          22.0646   73.4338    5.6304 O.2     1  UNL1       -0.2464
     22 O          25.8311   75.6560    6.3969 O.2     1  UNL1       -0.2670
     23 H          23.5745   74.8454    6.9238 H       1  UNL1        0.1734
     24 O          22.1524   71.7113   -3.5815 O.3     1  UNL1       -0.2703
     25 P          21.8480   72.5349   -4.9313 P.3     1  UNL1        0.2208
     26 O          21.7205   74.1027   -4.5856 O.3     1  UNL1       -0.4371
     27 O          22.9527   72.3309   -5.8938 O.2     1  UNL1       -0.5170
     28 O          20.4687   72.0137   -5.5783 O.3     1  UNL1       -0.2865
     29 C          20.0835   70.6379   -5.5863 C.3     1  UNL1        0.2611
     30 C          18.8568   70.4557   -6.4832 C.3     1  UNL1        0.1582
     31 C          17.6891   71.2622   -5.9067 C.3     1  UNL1        0.1625
     32 C          17.4292   70.8068   -4.4681 C.3     1  UNL1        0.1686
     33 C          18.7113   70.9757   -3.6487 C.3     1  UNL1        0.1760
     34 O          16.5190   71.0394   -6.6970 O.3     1  UNL1       -0.3801
     35 O          17.0375   69.4328   -4.4655 O.3     1  UNL1       -0.3794
     36 O          19.7650   70.2252   -4.2557 O.3     1  UNL1       -0.3263
     37 H          15.7392   71.5212   -6.3888 H       1  UNL1        0.2105
     38 H          16.8569   69.0763   -3.5844 H       1  UNL1        0.2105
     39 C          18.7759   70.2163   -8.9068 C.2     1  UNL1        0.2231
     40 C          19.0898   70.7076  -10.2957 C.3     1  UNL1        0.0946
     41 N          19.1627   70.9340   -7.8338 N.am    1  UNL1       -0.2994
     42 O          18.1744   69.1738   -8.7535 O.2     1  UNL1       -0.2751
     43 H          19.6445   71.7671   -7.9560 H       1  UNL1        0.1496
     44 C          18.4771   70.4670   -2.2250 C.3     1  UNL1        0.1693
     45 O          19.7085   70.4935   -1.5002 O.3     1  UNL1       -0.3794
     46 H          19.6349   70.1834   -0.5873 H       1  UNL1        0.2105
@<TRIPOS>BOND
     1    29    30    1
     2    30    41    1
     3    30    31    1
     4    31    34    1
     5    31    32    1
     6    32    35    1
     7    32    33    1
     8    33    36    1
     9    33    44    1
    10    39    40    1
    11    39    42    2
    12    39    41   am
    13    41    43    1
    14    29    28    1
    15    34    37    1
    16    35    38    1
    17    29    36    1
    18    44    45    1
    19    45    46    1
    20    15     6    1
    21    15    16   ar
    22    16    21    2
    23    16    17   ar
    24    17    23    1
    25    17    18   ar
    26    18    19   ar
    27    19    20   ar
    28    15    20   ar
    29    18    22    2
    30     6     7    1
    31     6    11    1
    32     7     9    1
    33     7     8    1
    34     8    13    1
    35     9    10    1
    36     9    12    1
    37    10     5    1
    38    10    11    1
    39    12    14    1
    40     5     4    1
    41     4     1    1
    42     1     2    1
    43     1    24    1
    44     1     3    2
    45    24    25    1
    46    28    25    1
    47    25    26    1
    48    25    27    2
@<TRIPOS>MOLECULE
UD2
 46 48 0 0 0
SMALL
GASTEIGER

@<TRIPOS>ATOM
      1 P          20.8329   70.9014   -3.4118 P.3     1  UNL1        0.2189
      2 O          20.4963   69.4958   -4.1205 O.3     1  UNL1       -0.4371
      3 O          21.6278   71.7418   -4.3343 O.2     1  UNL1       -0.5170
      4 O          19.4603   71.6590   -3.0436 O.3     1  UNL1       -0.3112
      5 C          18.3704   71.0144   -2.3817 C.3     1  UNL1        0.1811
      6 C          16.8758   70.5546   -5.6207 C.3     1  UNL1        0.2383
      7 C          16.9606   69.1265   -5.0244 C.3     1  UNL1        0.1895
      8 O          15.8922   68.3086   -5.5054 O.3     1  UNL1       -0.3779
      9 C          16.8088   69.3979   -3.5076 C.3     1  UNL1        0.1713
     10 C          17.1925   70.8816   -3.3502 C.3     1  UNL1        0.1764
     11 O          17.5706   71.3658   -4.6488 O.3     1  UNL1       -0.3308
     12 O          15.4579   69.1838   -3.0952 O.3     1  UNL1       -0.3794
     13 H          15.9024   67.4053   -5.1610 H       1  UNL1        0.2106
     14 H          15.1442   68.2790   -3.2273 H       1  UNL1        0.2105
     15 N          17.5512   70.6124   -6.9190 N.ar    1  UNL1       -0.2551
     16 C          16.8351   70.4777   -8.0494 C.ar    1  UNL1        0.3323
     17 N          17.4296   70.5266   -9.2561 N.ar    1  UNL1       -0.2743
     18 C          18.7617   70.7144   -9.3493 C.ar    1  UNL1        0.2626
     19 C          19.5278   70.8587   -8.1676 C.ar    1  UNL1        0.0795
     20 C          18.9049   70.8098   -6.9713 C.ar    1  UNL1        0.0869
     21 O          15.6330   70.3080   -7.9804 O.2     1  UNL1       -0.2464
     22 O          19.3010   70.7592  -10.4410 O.2     1  UNL1       -0.2670
     23 H          16.8985   70.4265  -10.0612 H       1  UNL1        0.1734
     24 O          21.6762   70.6358   -2.0659 O.3     1  UNL1       -0.2703
     25 P          21.8343   71.4257   -0.6716 P.3     1  UNL1        0.2208
     26 O          21.3766   70.4698    0.5410 O.3     1  UNL1       -0.4371
     27 O          23.2485   71.8171   -0.4836 O.2     1  UNL1       -0.5170
     28 O          20.9105   72.7443   -0.6942 O.3     1  UNL1       -0.2865
     29 C          21.3628   74.0197   -0.2358 C.3     1  UNL1        0.2611
     30 C          22.8738   73.9705    0.0033 C.3     1  UNL1        0.1582
     31 C          23.1750   72.9475    1.1029 C.3     1  UNL1        0.1625
     32 C          22.3994   73.3292    2.3667 C.3     1  UNL1        0.1686
     33 C          20.9063   73.4030    2.0364 C.3     1  UNL1        0.1760
     34 O          24.5765   72.9479    1.3842 O.3     1  UNL1       -0.3801
     35 O          22.8486   74.6014    2.8368 O.3     1  UNL1       -0.3794
     36 O          20.6987   74.3493    0.9859 O.3     1  UNL1       -0.3263
     37 H          24.8393   72.3213    2.0723 H       1  UNL1        0.2105
     38 H          22.3985   74.9072    3.6367 H       1  UNL1        0.2105
     39 C          23.7548   74.4795   -2.2109 C.2     1  UNL1        0.2231
     40 C          24.4524   74.0730   -3.4823 C.3     1  UNL1        0.0946
     41 N          23.5523   73.5742   -1.2333 N.am    1  UNL1       -0.2994
     42 O          23.3747   75.6226   -2.0661 O.2     1  UNL1       -0.2751
     43 H          23.8552   72.6600   -1.3490 H       1  UNL1        0.1496
     44 C          20.1303   73.8421    3.2795 C.3     1  UNL1        0.1693
     45 O          20.8154   73.3962    4.4518 O.3     1  UNL1       -0.3794
     46 H          20.3790   73.6398    5.2796 H       1  UNL1        0.2105
@<TRIPOS>BOND
     1    29    30    1
     2    30    41    1
     3    30    31    1
     4    31    34    1
     5    31    32    1
     6    32    35    1
     7    32    33    1
     8    33    36    1
     9    33    44    1
    10    39    40    1
    11    39    42    2
    12    39    41   am
    13    41    43    1
    14    29    28    1
    15    34    37    1
    16    35    38    1
    17    29    36    1
    18    44    45    1
    19    45    46    1
    20    15     6    1
    21    15    16   ar
    22    16    21    2
    23    16    17   ar
    24    17    23    1
    25    17    18   ar
    26    18    19   ar
    27    19    20   ar
    28    15    20   ar
    29    18    22    2
    30     6     7    1
    31     6    11    1
    32     7     9    1
    33     7     8    1
    34     8    13    1
    35     9    10    1
    36     9    12    1
    37    10     5    1
    38    10    11    1
    39    12    14    1
    40     5     4    1
    41     4     1    1
    42     1     2    1
    43     1    24    1
    44     1     3    2
    45    24    25    1
    46    28    25    1
    47    25    26    1
    48    25    27    2
@<TRIPOS>MOLECULE
UD2
 46 48 0 0 0
SMALL
GASTEIGER

@<TRIPOS>ATOM
      1 P          23.0049   71.9570   -2.0923 P.3     1  UNL1        0.2189
      2 O          23.9489   71.5478   -3.3304 O.3     1  UNL1       -0.4371
      3 O          23.3082   73.3444   -1.6775 O.2     1  UNL1       -0.5170
      4 O          21.4608   71.8556   -2.5385 O.3     1  UNL1       -0.3112
      5 C          20.7444   70.6201   -2.5835 C.3     1  UNL1        0.1811
      6 C          18.1679   70.7221   -5.0911 C.3     1  UNL1        0.2383
      7 C          18.0325   69.3175   -4.4500 C.3     1  UNL1        0.1895
      8 O          16.6756   68.8709   -4.4820 O.3     1  UNL1       -0.3779
      9 C          18.4942   69.5780   -2.9952 C.3     1  UNL1        0.1713
     10 C          19.3222   70.8738   -3.0893 C.3     1  UNL1        0.1764
     11 O          19.3569   71.2599   -4.4725 O.3     1  UNL1       -0.3308
     12 O          17.3656   69.7661   -2.1398 O.3     1  UNL1       -0.3794
     13 H          16.5397   67.9964   -4.0928 H       1  UNL1        0.2106
     14 H          16.7771   69.0008   -2.0898 H       1  UNL1        0.2105
     15 N          18.3446   70.6125   -6.5408 N.ar    1  UNL1       -0.2551
     16 C          17.2668   70.6092   -7.3452 C.ar    1  UNL1        0.3323
     17 N          17.3995   70.5096   -8.6811 N.ar    1  UNL1       -0.2743
     18 C          18.6248   70.4127   -9.2360 C.ar    1  UNL1        0.2626
     19 C          19.7681   70.4160   -8.4013 C.ar    1  UNL1        0.0795
     20 C          19.6057   70.5213   -7.0656 C.ar    1  UNL1        0.0869
     21 O          16.1559   70.6961   -6.8586 O.2     1  UNL1       -0.2464
     22 O          18.7463   70.3229  -10.4450 O.2     1  UNL1       -0.2670
     23 H          16.6118   70.5075   -9.2464 H       1  UNL1        0.1734
     24 O          23.2733   70.9569   -0.8590 O.3     1  UNL1       -0.2703
     25 P          22.8607   70.9657    0.6975 P.3     1  UNL1        0.2208
     26 O          21.4986   70.1295    0.8958 O.3     1  UNL1       -0.4371
     27 O          23.9399   70.3466    1.4977 O.2     1  UNL1       -0.5170
     28 O          22.6345   72.4838    1.1841 O.3     1  UNL1       -0.2865
     29 C          21.4648   72.9106    1.8848 C.3     1  UNL1        0.2611
     30 C          21.1391   74.3566    1.5028 C.3     1  UNL1        0.1582
     31 C          22.2964   75.2626    1.9344 C.3     1  UNL1        0.1625
     32 C          22.5261   75.0974    3.4392 C.3     1  UNL1        0.1686
     33 C          22.7985   73.6226    3.7466 C.3     1  UNL1        0.1760
     34 O          21.9689   76.6242    1.6479 O.3     1  UNL1       -0.3801
     35 O          21.3636   75.5272    4.1498 O.3     1  UNL1       -0.3794
     36 O          21.6981   72.8319    3.2926 O.3     1  UNL1       -0.3263
     37 H          22.6591   77.2547    1.8952 H       1  UNL1        0.2105
     38 H          21.4384   75.4496    5.1113 H       1  UNL1        0.2105
     39 C          19.7193   74.5520   -0.4678 C.2     1  UNL1        0.2231
     40 C          19.5327   74.6489   -1.9593 C.3     1  UNL1        0.0946
     41 N          20.9585   74.4505    0.0520 N.am    1  UNL1       -0.2994
     42 O          18.7535   74.5651    0.2666 O.2     1  UNL1       -0.2751
     43 H          21.7308   74.4390   -0.5349 H       1  UNL1        0.1496
     44 C          22.9700   73.4396    5.2557 C.3     1  UNL1        0.1693
     45 O          21.7005   73.1608    5.8498 O.3     1  UNL1       -0.3794
     46 H          21.7335   73.0330    6.8078 H       1  UNL1        0.2105
@<TRIPOS>BOND
     1    29    30    1
     2    30    41    1
     3    30    31    1
     4    31    34    1
     5    31    32    1
     6    32    35    1
     7    32    33    1
     8    33    36    1
     9    33    44    1
    10    39    40    1
    11    39    42    2
    12    39    41   am
    13    41    43    1
    14    29    28    1
    15    34    37    1
    16    35    38    1
    17    29    36    1
    18    44    45    1
    19    45    46    1
    20    15     6    1
    21    15    16   ar
    22    16    21    2
    23    16    17   ar
    24    17    23    1
    25    17    18   ar
    26    18    19   ar
    27    19    20   ar
    28    15    20   ar
    29    18    22    2
    30     6     7    1
    31     6    11    1
    32     7     9    1
    33     7     8    1
    34     8    13    1
    35     9    10    1
    36     9    12    1
    37    10     5    1
    38    10    11    1
    39    12    14    1
    40     5     4    1
    41     4     1    1
    42     1     2    1
    43     1    24    1
    44     1     3    2
    45    24    25    1
    46    28    25    1
    47    25    26    1
    48    25    27    2
@<TRIPOS>MOLECULE
UD2
 46 48 0 0 0
SMALL
GASTEIGER

@<TRIPOS>ATOM
      1 P          16.3564   69.9838   -2.2823 P.3     1  UNL1        0.2189
      2 O          17.0302   68.5403   -2.0503 O.3     1  UNL1       -0.4371
      3 O          15.8818   70.0884   -3.6797 O.2     1  UNL1       -0.5170
      4 O          15.1105   70.1620   -1.2776 O.3     1  UNL1       -0.3112
      5 C          14.6444   69.1151   -0.4241 C.3     1  UNL1        0.1811
      6 C          11.1539   68.2488   -0.4700 C.3     1  UNL1        0.2383
      7 C          11.6829   67.6644    0.8644 C.3     1  UNL1        0.1895
      8 O          10.6591   67.6609    1.8612 O.3     1  UNL1       -0.3779
      9 C          12.8088   68.6615    1.2325 C.3     1  UNL1        0.1713
     10 C          13.1642   69.3387   -0.1050 C.3     1  UNL1        0.1764
     11 O          12.3484   68.7337   -1.1209 O.3     1  UNL1       -0.3308
     12 O          12.3328   69.6271    2.1715 O.3     1  UNL1       -0.3794
     13 H          10.9414   67.3038    2.7141 H       1  UNL1        0.2106
     14 H          12.0396   69.2487    3.0114 H       1  UNL1        0.2105
     15 N          10.5159   67.2038   -1.2738 N.ar    1  UNL1       -0.2551
     16 C           9.5266   67.5285   -2.1251 C.ar    1  UNL1        0.3323
     17 N           8.9224   66.5887   -2.8760 N.ar    1  UNL1       -0.2743
     18 C           9.3048   65.2987   -2.7859 C.ar    1  UNL1        0.2626
     19 C          10.3457   64.9428   -1.8947 C.ar    1  UNL1        0.0795
     20 C          10.9366   65.9063   -1.1571 C.ar    1  UNL1        0.0869
     21 O           9.1716   68.6878   -2.2168 O.2     1  UNL1       -0.2464
     22 O           8.7591   64.4471   -3.4652 O.2     1  UNL1       -0.2670
     23 H           8.2099   66.8398   -3.4838 H       1  UNL1        0.1734
     24 O          17.4442   71.1363   -1.9969 O.3     1  UNL1       -0.2703
     25 P          18.9184   71.4476   -2.5651 P.3     1  UNL1        0.2208
     26 O          19.4829   72.7930   -1.8832 O.3     1  UNL1       -0.4371
     27 O          19.8190   70.3182   -2.2459 O.2     1  UNL1       -0.5170
     28 O          18.8477   71.6436   -4.1617 O.3     1  UNL1       -0.2865
     29 C          19.7530   71.0066   -5.0650 C.3     1  UNL1        0.2611
     30 C          20.5637   72.0695   -5.8106 C.3     1  UNL1        0.1582
     31 C          19.6117   72.9364   -6.6404 C.3     1  UNL1        0.1625
     32 C          18.8188   72.0372   -7.5928 C.3     1  UNL1        0.1686
     33 C          18.0751   70.9753   -6.7783 C.3     1  UNL1        0.1760
     34 O          20.3672   73.8849   -7.3972 O.3     1  UNL1       -0.3801
     35 O          19.7149   71.3995   -8.5047 O.3     1  UNL1       -0.3794
     36 O          19.0148   70.2248   -6.0064 O.3     1  UNL1       -0.3263
     37 H          19.8268   74.4690   -7.9467 H       1  UNL1        0.2105
     38 H          19.2800   70.8123   -9.1388 H       1  UNL1        0.2105
     39 C          22.6171   73.0123   -4.8984 C.2     1  UNL1        0.2231
     40 C          23.3486   73.8766   -3.9051 C.3     1  UNL1        0.0946
     41 N          21.2745   72.9101   -4.8439 N.am    1  UNL1       -0.2994
     42 O          23.2367   72.4075   -5.7484 O.2     1  UNL1       -0.2751
     43 H          20.7788   73.3927   -4.1638 H       1  UNL1        0.1496
     44 C          17.3280   70.0360   -7.7268 C.3     1  UNL1        0.1693
     45 O          16.7876   70.7880   -8.8153 O.3     1  UNL1       -0.3794
     46 H          16.2993   70.2554   -9.4579 H       1  UNL1        0.2105
@<TRIPOS>BOND
     1    29    30    1
     2    30    41    1
     3    30    31    1
     4    31    34    1
     5    31    32    1
     6    32    35    1
     7    32    33    1
     8    33    36    1
     9    33    44    1
    10    39    40    1
    11    39    42    2
    12    39    41   am
    13    41    43    1
    14    29    28    1
    15    34    37    1
    16    35    38    1
    17    29    36    1
    18    44    45    1
    19    45    46    1
    20    15     6    1
    21    15    16   ar
    22    16    21    2
    23    16    17   ar
    24    17    23    1
    25    17    18   ar
    26    18    19   ar
    27    19    20   ar
    28    15    20   ar
    29    18    22    2
    30     6     7    1
    31     6    11    1
    32     7     9    1
    33     7     8    1
    34     8    13    1
    35     9    10    1
    36     9    12    1
    37    10     5    1
    38    10    11    1
    39    12    14    1
    40     5     4    1
    41     4     1    1
    42     1     2    1
    43     1    24    1
    44     1     3    2
    45    24    25    1
    46    28    25    1
    47    25    26    1
    48    25    27    2
@<TRIPOS>MOLECULE
UD2
 46 48 0 0 0
SMALL
GASTEIGER

@<TRIPOS>ATOM
      1 P          20.5510   71.8919   -0.9358 P.3     1  UNL1        0.2189
      2 O          20.8572   70.4909   -0.2045 O.3     1  UNL1       -0.4371
      3 O          21.7782   72.3795   -1.6028 O.2     1  UNL1       -0.5170
      4 O          19.3910   71.6820   -2.0331 O.3     1  UNL1       -0.3112
      5 C          18.9264   70.3923   -2.4358 C.3     1  UNL1        0.1811
      6 C          17.1668   70.4604   -5.5721 C.3     1  UNL1        0.2383
      7 C          17.0218   68.9994   -5.0755 C.3     1  UNL1        0.1895
      8 O          15.7908   68.4283   -5.5230 O.3     1  UNL1       -0.3779
      9 C          17.0213   69.1771   -3.5374 C.3     1  UNL1        0.1713
     10 C          17.6846   70.5500   -3.3168 C.3     1  UNL1        0.1764
     11 O          18.0620   71.0552   -4.6075 O.3     1  UNL1       -0.3308
     12 O          15.6836   69.1812   -3.0361 O.3     1  UNL1       -0.3794
     13 H          15.6542   67.5146   -5.2383 H       1  UNL1        0.2106
     14 H          15.1987   68.3612   -3.2004 H       1  UNL1        0.2105
     15 N          17.7561   70.4935   -6.9124 N.ar    1  UNL1       -0.2551
     16 C          16.9562   70.4617   -7.9931 C.ar    1  UNL1        0.3323
     17 N          17.4704   70.4908   -9.2369 N.ar    1  UNL1       -0.2743
     18 C          18.8052   70.5544   -9.4181 C.ar    1  UNL1        0.2626
     19 C          19.6591   70.5895   -8.2894 C.ar    1  UNL1        0.0795
     20 C          19.1160   70.5634   -7.0541 C.ar    1  UNL1        0.0869
     21 O          15.7507   70.4045   -7.8447 O.2     1  UNL1       -0.2464
     22 O          19.2719   70.5812  -10.5432 O.2     1  UNL1       -0.2670
     23 H          16.8794   70.4660  -10.0051 H       1  UNL1        0.1734
     24 O          20.0672   72.9727    0.1555 O.3     1  UNL1       -0.2703
     25 P          20.4941   73.2961    1.6741 P.3     1  UNL1        0.2208
     26 O          19.4996   74.4052    2.2861 O.3     1  UNL1       -0.4371
     27 O          20.4123   72.0606    2.4836 O.2     1  UNL1       -0.5170
     28 O          22.0037   73.8559    1.6994 O.3     1  UNL1       -0.2865
     29 C          22.7751   73.9606    2.8974 C.3     1  UNL1        0.2611
     30 C          23.8344   75.0526    2.7296 C.3     1  UNL1        0.1582
     31 C          24.7865   74.6583    1.5963 C.3     1  UNL1        0.1625
     32 C          25.4046   73.2941    1.9146 C.3     1  UNL1        0.1686
     33 C          24.2844   72.2696    2.1139 C.3     1  UNL1        0.1760
     34 O          25.8223   75.6367    1.4811 O.3     1  UNL1       -0.3801
     35 O          26.1833   73.3894    3.1086 O.3     1  UNL1       -0.3794
     36 O          23.4176   72.7115    3.1605 O.3     1  UNL1       -0.3263
     37 H          26.4624   75.4505    0.7805 H       1  UNL1        0.2105
     38 H          26.6051   72.5592    3.3713 H       1  UNL1        0.2105
     39 C          22.9930   76.6694    1.1122 C.2     1  UNL1        0.2231
     40 C          22.3210   77.9740    0.7733 C.3     1  UNL1        0.0946
     41 N          23.1808   76.3219    2.4007 N.am    1  UNL1       -0.2994
     42 O          23.3659   75.9304    0.2250 O.2     1  UNL1       -0.2751
     43 H          22.8838   76.9128    3.1103 H       1  UNL1        0.1496
     44 C          24.8917   70.9171    2.4911 C.3     1  UNL1        0.1693
     45 O          26.1497   70.7585    1.8317 O.3     1  UNL1       -0.3794
     46 H          26.5930   69.9212    2.0253 H       1  UNL1        0.2105
@<TRIPOS>BOND
     1    29    30    1
     2    30    41    1
     3    30    31    1
     4    31    34    1
     5    31    32    1
     6    32    35    1
     7    32    33    1
     8    33    36    1
     9    33    44    1
    10    39    40    1
    11    39    42    2
    12    39    41   am
    13    41    43    1
    14    29    28    1
    15    34    37    1
    16    35    38    1
    17    29    36    1
    18    44    45    1
    19    45    46    1
    20    15     6    1
    21    15    16   ar
    22    16    21    2
    23    16    17   ar
    24    17    23    1
    25    17    18   ar
    26    18    19   ar
    27    19    20   ar
    28    15    20   ar
    29    18    22    2
    30     6     7    1
    31     6    11    1
    32     7     9    1
    33     7     8    1
    34     8    13    1
    35     9    10    1
    36     9    12    1
    37    10     5    1
    38    10    11    1
    39    12    14    1
    40     5     4    1
    41     4     1    1
    42     1     2    1
    43     1    24    1
    44     1     3    2
    45    24    25    1
    46    28    25    1
    47    25    26    1
    48    25    27    2
@<TRIPOS>MOLECULE
UD2
 46 48 0 0 0
SMALL
GASTEIGER

@<TRIPOS>ATOM
      1 P          20.7739   72.8462   -3.4449 P.3     1  UNL1        0.2189
      2 O          21.3353   71.5602   -4.2339 O.3     1  UNL1       -0.4371
      3 O          20.5116   73.9397   -4.4063 O.2     1  UNL1       -0.5170
      4 O          19.4064   72.4568   -2.6886 O.3     1  UNL1       -0.3112
      5 C          18.8937   71.1238   -2.6471 C.3     1  UNL1        0.1811
      6 C          17.1602   70.6272   -5.7592 C.3     1  UNL1        0.2383
      7 C          17.1926   69.2235   -5.1028 C.3     1  UNL1        0.1895
      8 O          16.0442   68.4594   -5.4757 O.3     1  UNL1       -0.3779
      9 C          17.1599   69.5692   -3.5939 C.3     1  UNL1        0.1713
     10 C          17.6479   71.0292   -3.5314 C.3     1  UNL1        0.1764
     11 O          17.9690   71.4307   -4.8727 O.3     1  UNL1       -0.3308
     12 O          15.8285   69.4642   -3.0868 O.3     1  UNL1       -0.3794
     13 H          16.0191   67.5731   -5.0905 H       1  UNL1        0.2106
     14 H          15.4492   68.5778   -3.1559 H       1  UNL1        0.2105
     15 N          17.7500   70.5838   -7.0990 N.ar    1  UNL1       -0.2551
     16 C          16.9518   70.4659   -8.1750 C.ar    1  UNL1        0.3323
     17 N          17.4665   70.4233   -9.4182 N.ar    1  UNL1       -0.2743
     18 C          18.8000   70.5007   -9.6037 C.ar    1  UNL1        0.2626
     19 C          19.6520   70.6260   -8.4800 C.ar    1  UNL1        0.0795
     20 C          19.1084   70.6705   -7.2455 C.ar    1  UNL1        0.0869
     21 O          15.7476   70.3953   -8.0228 O.2     1  UNL1       -0.2464
     22 O          19.2672   70.4627  -10.7283 O.2     1  UNL1       -0.2670
     23 H          16.8768   70.3368  -10.1830 H       1  UNL1        0.1734
     24 O          21.8647   73.3314   -2.3641 O.3     1  UNL1       -0.2703
     25 P          22.5703   72.6323   -1.0967 P.3     1  UNL1        0.2208
     26 O          22.6309   71.0396   -1.3278 O.3     1  UNL1       -0.4371
     27 O          23.9435   73.1604   -0.9429 O.2     1  UNL1       -0.5170
     28 O          21.7204   72.9501    0.2334 O.3     1  UNL1       -0.2865
     29 C          21.8890   74.1452    0.9980 C.3     1  UNL1        0.2611
     30 C          22.3870   73.7887    2.4007 C.3     1  UNL1        0.1582
     31 C          21.3314   72.9309    3.1052 C.3     1  UNL1        0.1625
     32 C          20.0056   73.6961    3.1370 C.3     1  UNL1        0.1686
     33 C          19.5993   74.0562    1.7055 C.3     1  UNL1        0.1760
     34 O          21.7556   72.6547    4.4420 O.3     1  UNL1       -0.3801
     35 O          20.1620   74.8910    3.9045 O.3     1  UNL1       -0.3794
     36 O          20.6372   74.8274    1.0972 O.3     1  UNL1       -0.3263
     37 H          21.1337   72.1136    4.9477 H       1  UNL1        0.2105
     38 H          19.3592   75.4273    3.9667 H       1  UNL1        0.2105
     39 C          23.6188   71.6894    2.2845 C.2     1  UNL1        0.2231
     40 C          24.9068   70.9157    2.1793 C.3     1  UNL1        0.0946
     41 N          23.6403   73.0368    2.2986 N.am    1  UNL1       -0.2994
     42 O          22.5609   71.0997    2.3568 O.2     1  UNL1       -0.2751
     43 H          24.4860   73.5087    2.2419 H       1  UNL1        0.1496
     44 C          18.3059   74.8729    1.7328 C.3     1  UNL1        0.1693
     45 O          18.6123   76.2430    2.0001 O.3     1  UNL1       -0.3794
     46 H          17.8377   76.8208    2.0321 H       1  UNL1        0.2105
@<TRIPOS>BOND
     1    29    30    1
     2    30    41    1
     3    30    31    1
     4    31    34    1
     5    31    32    1
     6    32    35    1
     7    32    33    1
     8    33    36    1
     9    33    44    1
    10    39    40    1
    11    39    42    2
    12    39    41   am
    13    41    43    1
    14    29    28    1
    15    34    37    1
    16    35    38    1
    17    29    36    1
    18    44    45    1
    19    45    46    1
    20    15     6    1
    21    15    16   ar
    22    16    21    2
    23    16    17   ar
    24    17    23    1
    25    17    18   ar
    26    18    19   ar
    27    19    20   ar
    28    15    20   ar
    29    18    22    2
    30     6     7    1
    31     6    11    1
    32     7     9    1
    33     7     8    1
    34     8    13    1
    35     9    10    1
    36     9    12    1
    37    10     5    1
    38    10    11    1
    39    12    14    1
    40     5     4    1
    41     4     1    1
    42     1     2    1
    43     1    24    1
    44     1     3    2
    45    24    25    1
    46    28    25    1
    47    25    26    1
    48    25    27    2
@<TRIPOS>MOLECULE
UD2
 46 48 0 0 0
SMALL
GASTEIGER

@<TRIPOS>ATOM
      1 P          23.1547   71.9727   -3.5873 P.3     1  UNL1        0.2189
      2 O          24.2234   70.8426   -3.1723 O.3     1  UNL1       -0.4371
      3 O          23.6071   72.6508   -4.8219 O.2     1  UNL1       -0.5170
      4 O          21.7211   71.2861   -3.8465 O.3     1  UNL1       -0.3112
      5 C          20.8354   70.9134   -2.7891 C.3     1  UNL1        0.1811
      6 C          18.1961   70.7595   -5.2277 C.3     1  UNL1        0.2383
      7 C          18.1720   69.3711   -4.5392 C.3     1  UNL1        0.1895
      8 O          16.8479   68.8342   -4.5202 O.3     1  UNL1       -0.3779
      9 C          18.6511   69.7103   -3.1064 C.3     1  UNL1        0.1713
     10 C          19.3871   71.0546   -3.2638 C.3     1  UNL1        0.1764
     11 O          19.3611   71.3958   -4.6590 O.3     1  UNL1       -0.3308
     12 O          17.5341   69.8510   -2.2271 O.3     1  UNL1       -0.3794
     13 H          16.7813   67.9661   -4.1000 H       1  UNL1        0.2106
     14 H          17.0002   69.0502   -2.1369 H       1  UNL1        0.2105
     15 N          18.3435   70.6137   -6.6776 N.ar    1  UNL1       -0.2551
     16 C          17.2494   70.5845   -7.4591 C.ar    1  UNL1        0.3323
     17 N          17.3551   70.4513   -8.7945 N.ar    1  UNL1       -0.2743
     18 C          18.5692   70.3463   -9.3720 C.ar    1  UNL1        0.2626
     19 C          19.7295   70.3766   -8.5615 C.ar    1  UNL1        0.0795
     20 C          19.5940   70.5154   -7.2259 C.ar    1  UNL1        0.0869
     21 O          16.1482   70.6783   -6.9520 O.2     1  UNL1       -0.2464
     22 O          18.6663   70.2261  -10.5806 O.2     1  UNL1       -0.2670
     23 H          16.5559   70.4308   -9.3431 H       1  UNL1        0.1734
     24 O          23.0252   73.0515   -2.3987 O.3     1  UNL1       -0.2703
     25 P          23.8013   74.4154   -2.0375 P.3     1  UNL1        0.2208
     26 O          25.0410   74.6103   -3.0470 O.3     1  UNL1       -0.4371
     27 O          22.8742   75.5606   -2.1689 O.2     1  UNL1       -0.5170
     28 O          24.3476   74.3374   -0.5248 O.3     1  UNL1       -0.2865
     29 C          23.5554   74.6969    0.6085 C.3     1  UNL1        0.2611
     30 C          24.3933   74.5605    1.8820 C.3     1  UNL1        0.1582
     31 C          24.8123   73.0971    2.0528 C.3     1  UNL1        0.1625
     32 C          23.5586   72.2188    2.0861 C.3     1  UNL1        0.1686
     33 C          22.7527   72.4455    0.8043 C.3     1  UNL1        0.1760
     34 O          25.5332   72.9470    3.2780 O.3     1  UNL1       -0.3801
     35 O          22.7617   72.5666    3.2198 O.3     1  UNL1       -0.3794
     36 O          22.4215   73.8309    0.6905 O.3     1  UNL1       -0.3263
     37 H          25.8307   72.0432    3.4507 H       1  UNL1        0.2105
     38 H          21.9487   72.0489    3.3036 H       1  UNL1        0.2105
     39 C          25.7632   76.4344    2.6232 C.2     1  UNL1        0.2231
     40 C          26.9908   77.3003    2.5135 C.3     1  UNL1        0.0946
     41 N          25.5875   75.4025    1.7745 N.am    1  UNL1       -0.2994
     42 O          24.9317   76.6658    3.4760 O.2     1  UNL1       -0.2751
     43 H          26.2515   75.2177    1.0919 H       1  UNL1        0.1496
     44 C          21.4681   71.6163    0.8564 C.3     1  UNL1        0.1693
     45 O          21.7816   70.2742    1.2344 O.3     1  UNL1       -0.3794
     46 H          21.0127   69.6902    1.2877 H       1  UNL1        0.2105
@<TRIPOS>BOND
     1    29    30    1
     2    30    41    1
     3    30    31    1
     4    31    34    1
     5    31    32    1
     6    32    35    1
     7    32    33    1
     8    33    36    1
     9    33    44    1
    10    39    40    1
    11    39    42    2
    12    39    41   am
    13    41    43    1
    14    29    28    1
    15    34    37    1
    16    35    38    1
    17    29    36    1
    18    44    45    1
    19    45    46    1
    20    15     6    1
    21    15    16   ar
    22    16    21    2
    23    16    17   ar
    24    17    23    1
    25    17    18   ar
    26    18    19   ar
    27    19    20   ar
    28    15    20   ar
    29    18    22    2
    30     6     7    1
    31     6    11    1
    32     7     9    1
    33     7     8    1
    34     8    13    1
    35     9    10    1
    36     9    12    1
    37    10     5    1
    38    10    11    1
    39    12    14    1
    40     5     4    1
    41     4     1    1
    42     1     2    1
    43     1    24    1
    44     1     3    2
    45    24    25    1
    46    28    25    1
    47    25    26    1
    48    25    27    2
@<TRIPOS>MOLECULE
UD2
 46 48 0 0 0
SMALL
GASTEIGER

@<TRIPOS>ATOM
      1 P          22.1439   72.9041   -6.6208 P.3     1  UNL1        0.2189
      2 O          22.9882   73.2178   -7.9550 O.3     1  UNL1       -0.4371
      3 O          21.5610   74.1596   -6.0984 O.2     1  UNL1       -0.5170
      4 O          20.9617   71.8662   -6.9657 O.3     1  UNL1       -0.3112
      5 C          20.6474   71.4615   -8.2994 C.3     1  UNL1        0.1811
      6 C          17.5924   70.0895   -6.9875 C.3     1  UNL1        0.2383
      7 C          17.1335   71.0857   -8.0826 C.3     1  UNL1        0.1895
      8 O          15.9127   70.6534   -8.6862 O.3     1  UNL1       -0.3779
      9 C          18.3039   71.0189   -9.0941 C.3     1  UNL1        0.1713
     10 C          19.4831   70.4682   -8.2697 C.3     1  UNL1        0.1764
     11 O          19.0197   70.2986   -6.9206 O.3     1  UNL1       -0.3308
     12 O          17.9857   70.1313  -10.1673 O.3     1  UNL1       -0.3794
     13 H          15.5846   71.2443   -9.3774 H       1  UNL1        0.2106
     14 H          17.2138   70.3988  -10.6842 H       1  UNL1        0.2105
     15 N          16.9632   70.4082   -5.7039 N.ar    1  UNL1       -0.2551
     16 C          16.4399   69.4212   -4.9550 C.ar    1  UNL1        0.3323
     17 N          15.8555   69.6851   -3.7714 N.ar    1  UNL1       -0.2743
     18 C          15.7876   70.9525   -3.3155 C.ar    1  UNL1        0.2626
     19 C          16.3353   72.0011   -4.0931 C.ar    1  UNL1        0.0795
     20 C          16.9190   71.7071   -5.2739 C.ar    1  UNL1        0.0869
     21 O          16.4941   68.2737   -5.3535 O.2     1  UNL1       -0.2464
     22 O          15.2593   71.1926   -2.2442 O.2     1  UNL1       -0.2670
     23 H          15.4821   68.9618   -3.2445 H       1  UNL1        0.1734
     24 O          23.1153   72.2599   -5.5096 O.3     1  UNL1       -0.2703
     25 P          23.4345   72.6038   -3.9692 P.3     1  UNL1        0.2208
     26 O          24.1647   71.3451   -3.2791 O.3     1  UNL1       -0.4371
     27 O          24.3211   73.7860   -3.9009 O.2     1  UNL1       -0.5170
     28 O          22.0590   72.9184   -3.1936 O.3     1  UNL1       -0.2865
     29 C          21.8148   74.1489   -2.5099 C.3     1  UNL1        0.2611
     30 C          21.3608   73.8567   -1.0777 C.3     1  UNL1        0.1582
     31 C          20.0426   73.0774   -1.1181 C.3     1  UNL1        0.1625
     32 C          19.0065   73.8882   -1.9013 C.3     1  UNL1        0.1686
     33 C          19.5514   74.1792   -3.3022 C.3     1  UNL1        0.1760
     34 O          19.5735   72.8640    0.2152 O.3     1  UNL1       -0.3801
     35 O          18.7507   75.1190   -1.2225 O.3     1  UNL1       -0.3794
     36 O          20.7930   74.8781   -3.1929 O.3     1  UNL1       -0.3263
     37 H          18.7410   72.3744    0.2651 H       1  UNL1        0.2105
     38 H          18.1024   75.6852   -1.6643 H       1  UNL1        0.2105
     39 C          22.2846   71.7137   -0.3764 C.2     1  UNL1        0.2231
     40 C          23.3334   70.8915    0.3256 C.3     1  UNL1        0.0946
     41 N          22.3812   73.0577   -0.3944 N.am    1  UNL1       -0.2994
     42 O          21.3519   71.1660   -0.9263 O.2     1  UNL1       -0.2751
     43 H          23.1262   73.4960    0.0460 H       1  UNL1        0.1496
     44 C          18.5472   75.0399   -4.0711 C.3     1  UNL1        0.1693
     45 O          18.7315   74.8486   -5.4753 O.3     1  UNL1       -0.3794
     46 H          18.1271   75.3649   -6.0258 H       1  UNL1        0.2105
@<TRIPOS>BOND
     1    29    30    1
     2    30    41    1
     3    30    31    1
     4    31    34    1
     5    31    32    1
     6    32    35    1
     7    32    33    1
     8    33    36    1
     9    33    44    1
    10    39    40    1
    11    39    42    2
    12    39    41   am
    13    41    43    1
    14    29    28    1
    15    34    37    1
    16    35    38    1
    17    29    36    1
    18    44    45    1
    19    45    46    1
    20    15     6    1
    21    15    16   ar
    22    16    21    2
    23    16    17   ar
    24    17    23    1
    25    17    18   ar
    26    18    19   ar
    27    19    20   ar
    28    15    20   ar
    29    18    22    2
    30     6     7    1
    31     6    11    1
    32     7     9    1
    33     7     8    1
    34     8    13    1
    35     9    10    1
    36     9    12    1
    37    10     5    1
    38    10    11    1
    39    12    14    1
    40     5     4    1
    41     4     1    1
    42     1     2    1
    43     1    24    1
    44     1     3    2
    45    24    25    1
    46    28    25    1
    47    25    26    1
    48    25    27    2
@<TRIPOS>MOLECULE
UD2
 46 48 0 0 0
SMALL
GASTEIGER

@<TRIPOS>ATOM
      1 P          21.0770   71.9599   -2.7268 P.3     1  UNL1        0.2189
      2 O          21.6344   72.6820   -1.4004 O.3     1  UNL1       -0.4371
      3 O          21.5725   70.5667   -2.7759 O.2     1  UNL1       -0.5170
      4 O          19.4667   71.9562   -2.6992 O.3     1  UNL1       -0.3112
      5 C          18.6961   70.7759   -2.4659 C.3     1  UNL1        0.1811
      6 C          17.0338   70.5272   -5.6457 C.3     1  UNL1        0.2383
      7 C          17.0053   69.0857   -5.0773 C.3     1  UNL1        0.1895
      8 O          15.8446   68.3833   -5.5260 O.3     1  UNL1       -0.3779
      9 C          16.9420   69.3390   -3.5511 C.3     1  UNL1        0.1713
     10 C          17.4726   70.7759   -3.3856 C.3     1  UNL1        0.1764
     11 O          17.8423   71.2484   -4.6908 O.3     1  UNL1       -0.3308
     12 O          15.5947   69.2461   -3.0854 O.3     1  UNL1       -0.3794
     13 H          15.7819   67.4763   -5.1974 H       1  UNL1        0.2106
     14 H          15.1905   68.3783   -3.2191 H       1  UNL1        0.2105
     15 N          17.6584   70.5471   -6.9703 N.ar    1  UNL1       -0.2551
     16 C          16.8892   70.4716   -8.0710 C.ar    1  UNL1        0.3323
     17 N          17.4362   70.4875   -9.3009 N.ar    1  UNL1       -0.2743
     18 C          18.7733   70.5820   -9.4479 C.ar    1  UNL1        0.2626
     19 C          19.5950   70.6632   -8.2979 C.ar    1  UNL1        0.0795
     20 C          19.0193   70.6493   -7.0773 C.ar    1  UNL1        0.0869
     21 O          15.6820   70.3862   -7.9535 O.2     1  UNL1       -0.2464
     22 O          19.2697   70.5969  -10.5605 O.2     1  UNL1       -0.2670
     23 H          16.8671   70.4310  -10.0839 H       1  UNL1        0.1734
     24 O          21.5889   72.7582   -4.0283 O.3     1  UNL1       -0.2703
     25 P          23.0214   72.9278   -4.7440 P.3     1  UNL1        0.2208
     26 O          24.1543   72.2089   -3.8531 O.3     1  UNL1       -0.4371
     27 O          22.9801   72.3045   -6.0849 O.2     1  UNL1       -0.5170
     28 O          23.3663   74.4938   -4.8899 O.3     1  UNL1       -0.2865
     29 C          22.5532   75.4040   -5.6325 C.3     1  UNL1        0.2611
     30 C          23.3950   76.0664   -6.7258 C.3     1  UNL1        0.1582
     31 C          24.5202   76.8747   -6.0725 C.3     1  UNL1        0.1625
     32 C          23.9080   77.8975   -5.1116 C.3     1  UNL1        0.1686
     33 C          23.0463   77.1643   -4.0802 C.3     1  UNL1        0.1760
     34 O          25.2671   77.5561   -7.0830 O.3     1  UNL1       -0.3801
     35 O          23.0970   78.8166   -5.8455 O.3     1  UNL1       -0.3794
     36 O          22.0390   76.4078   -4.7548 O.3     1  UNL1       -0.3263
     37 H          25.9980   78.0882   -6.7397 H       1  UNL1        0.2105
     38 H          22.6758   79.4943   -5.2984 H       1  UNL1        0.2105
     39 C          24.0279   75.2272   -8.9242 C.2     1  UNL1        0.2231
     40 C          24.6212   74.1673   -9.8149 C.3     1  UNL1        0.0946
     41 N          23.9720   75.0349   -7.5915 N.am    1  UNL1       -0.2994
     42 O          23.5998   76.2551   -9.4064 O.2     1  UNL1       -0.2751
     43 H          24.3132   74.2129   -7.2057 H       1  UNL1        0.1496
     44 C          22.3830   78.1842   -3.1526 C.3     1  UNL1        0.1693
     45 O          21.7853   77.5050   -2.0464 O.3     1  UNL1       -0.3794
     46 H          21.3451   78.0910   -1.4156 H       1  UNL1        0.2105
@<TRIPOS>BOND
     1    29    30    1
     2    30    41    1
     3    30    31    1
     4    31    34    1
     5    31    32    1
     6    32    35    1
     7    32    33    1
     8    33    36    1
     9    33    44    1
    10    39    40    1
    11    39    42    2
    12    39    41   am
    13    41    43    1
    14    29    28    1
    15    34    37    1
    16    35    38    1
    17    29    36    1
    18    44    45    1
    19    45    46    1
    20    15     6    1
    21    15    16   ar
    22    16    21    2
    23    16    17   ar
    24    17    23    1
    25    17    18   ar
    26    18    19   ar
    27    19    20   ar
    28    15    20   ar
    29    18    22    2
    30     6     7    1
    31     6    11    1
    32     7     9    1
    33     7     8    1
    34     8    13    1
    35     9    10    1
    36     9    12    1
    37    10     5    1
    38    10    11    1
    39    12    14    1
    40     5     4    1
    41     4     1    1
    42     1     2    1
    43     1    24    1
    44     1     3    2
    45    24    25    1
    46    28    25    1
    47    25    26    1
    48    25    27    2
@<TRIPOS>MOLECULE
UD2
 46 48 0 0 0
SMALL
GASTEIGER

@<TRIPOS>ATOM
      1 P          23.3613   71.8675   -3.2666 P.3     1  UNL1        0.2189
      2 O          24.3907   70.6312   -3.2091 O.3     1  UNL1       -0.4371
      3 O          23.7256   72.7619   -4.3874 O.2     1  UNL1       -0.5170
      4 O          21.8663   71.3109   -3.4881 O.3     1  UNL1       -0.3112
      5 C          20.9263   71.1628   -2.4224 C.3     1  UNL1        0.1811
      6 C          18.4447   71.0302   -5.0225 C.3     1  UNL1        0.2383
      7 C          18.4346   69.6103   -4.4014 C.3     1  UNL1        0.1895
      8 O          17.1340   69.0249   -4.4882 O.3     1  UNL1       -0.3779
      9 C          18.8140   69.8971   -2.9279 C.3     1  UNL1        0.1713
     10 C          19.5043   71.2735   -2.9779 C.3     1  UNL1        0.1764
     11 O          19.5478   71.6805   -4.3548 O.3     1  UNL1       -0.3308
     12 O          17.6420   69.9542   -2.1130 O.3     1  UNL1       -0.3794
     13 H          17.0768   68.1356   -4.1133 H       1  UNL1        0.2106
     14 H          17.1357   69.1310   -2.0927 H       1  UNL1        0.2105
     15 N          18.6837   70.9601   -6.4658 N.ar    1  UNL1       -0.2551
     16 C          17.7477   71.4126   -7.3190 C.ar    1  UNL1        0.3323
     17 N          17.9405   71.3604   -8.6503 N.ar    1  UNL1       -0.2743
     18 C          19.0846   70.8515   -9.1509 C.ar    1  UNL1        0.2626
     19 C          20.0789   70.3726   -8.2643 C.ar    1  UNL1        0.0795
     20 C          19.8607   70.4411   -6.9342 C.ar    1  UNL1        0.0869
     21 O          16.7114   71.8743   -6.8816 O.2     1  UNL1       -0.2464
     22 O          19.2605   70.8041  -10.3556 O.2     1  UNL1       -0.2670
     23 H          17.2548   71.6899   -9.2514 H       1  UNL1        0.1734
     24 O          23.4283   72.6870   -1.8820 O.3     1  UNL1       -0.2703
     25 P          23.3397   74.2493   -1.5022 P.3     1  UNL1        0.2208
     26 O          24.6500   75.0092   -2.0493 O.3     1  UNL1       -0.4371
     27 O          22.1330   74.8400   -2.1213 O.2     1  UNL1       -0.5170
     28 O          23.2553   74.4086    0.0978 O.3     1  UNL1       -0.2865
     29 C          22.3067   73.7044    0.9013 C.3     1  UNL1        0.2611
     30 C          22.3059   74.2844    2.3177 C.3     1  UNL1        0.1582
     31 C          23.6886   74.0804    2.9445 C.3     1  UNL1        0.1625
     32 C          24.0293   72.5877    2.9286 C.3     1  UNL1        0.1686
     33 C          23.9637   72.0730    1.4882 C.3     1  UNL1        0.1760
     34 O          23.6756   74.5530    4.2935 O.3     1  UNL1       -0.3801
     35 O          23.0893   71.8746    3.7344 O.3     1  UNL1       -0.3794
     36 O          22.6616   72.3211    0.9543 O.3     1  UNL1       -0.3263
     37 H          24.5213   74.4553    4.7522 H       1  UNL1        0.2105
     38 H          23.2444   70.9203    3.7695 H       1  UNL1        0.2105
     39 C          20.8771   76.1896    2.8338 C.2     1  UNL1        0.2231
     40 C          20.5629   77.6615    2.7752 C.3     1  UNL1        0.0946
     41 N          22.0008   75.7162    2.2601 N.am    1  UNL1       -0.2994
     42 O          20.1183   75.4292    3.3979 O.2     1  UNL1       -0.2751
     43 H          22.6073   76.3237    1.8081 H       1  UNL1        0.1496
     44 C          24.2444   70.5693    1.4709 C.3     1  UNL1        0.1693
     45 O          24.9826   70.2083    2.6401 O.3     1  UNL1       -0.3794
     46 H          25.1965   69.2669    2.6958 H       1  UNL1        0.2105
@<TRIPOS>BOND
     1    29    30    1
     2    30    41    1
     3    30    31    1
     4    31    34    1
     5    31    32    1
     6    32    35    1
     7    32    33    1
     8    33    36    1
     9    33    44    1
    10    39    40    1
    11    39    42    2
    12    39    41   am
    13    41    43    1
    14    29    28    1
    15    34    37    1
    16    35    38    1
    17    29    36    1
    18    44    45    1
    19    45    46    1
    20    15     6    1
    21    15    16   ar
    22    16    21    2
    23    16    17   ar
    24    17    23    1
    25    17    18   ar
    26    18    19   ar
    27    19    20   ar
    28    15    20   ar
    29    18    22    2
    30     6     7    1
    31     6    11    1
    32     7     9    1
    33     7     8    1
    34     8    13    1
    35     9    10    1
    36     9    12    1
    37    10     5    1
    38    10    11    1
    39    12    14    1
    40     5     4    1
    41     4     1    1
    42     1     2    1
    43     1    24    1
    44     1     3    2
    45    24    25    1
    46    28    25    1
    47    25    26    1
    48    25    27    2
@<TRIPOS>MOLECULE
UD2
 46 48 0 0 0
SMALL
GASTEIGER

@<TRIPOS>ATOM
      1 P          16.4385   69.5279   -2.8704 P.3     1  UNL1        0.2189
      2 O          17.4168   68.4584   -2.1701 O.3     1  UNL1       -0.4371
      3 O          16.0565   69.0419   -4.2145 O.2     1  UNL1       -0.5170
      4 O          15.1156   69.7142   -1.9710 O.3     1  UNL1       -0.3112
      5 C          14.9291   69.0550   -0.7172 C.3     1  UNL1        0.1811
      6 C          12.0840   67.9393    1.1795 C.3     1  UNL1        0.2383
      7 C          12.3460   69.3818    1.6821 C.3     1  UNL1        0.1895
      8 O          11.1281   70.0102    2.0864 O.3     1  UNL1       -0.3779
      9 C          12.9279   70.0652    0.4204 C.3     1  UNL1        0.1713
     10 C          13.4316   68.8936   -0.4439 C.3     1  UNL1        0.1764
     11 O          13.1973   67.6846    0.2956 O.3     1  UNL1       -0.3308
     12 O          11.9091   70.7929   -0.2675 O.3     1  UNL1       -0.3794
     13 H          11.2401   70.9145    2.4094 H       1  UNL1        0.2106
     14 H          11.5147   71.5060    0.2526 H       1  UNL1        0.2105
     15 N          12.0867   66.9946    2.2987 N.ar    1  UNL1       -0.2551
     16 C          13.2551   66.5279    2.7740 C.ar    1  UNL1        0.3323
     17 N          13.2874   65.6587    3.8014 N.ar    1  UNL1       -0.2743
     18 C          12.1399   65.2419    4.3742 C.ar    1  UNL1        0.2626
     19 C          10.9029   65.7259    3.8847 C.ar    1  UNL1        0.0795
     20 C          10.9004   66.5998    2.8562 C.ar    1  UNL1        0.0869
     21 O          14.2976   66.8952    2.2673 O.2     1  UNL1       -0.2464
     22 O          12.1678   64.4556    5.3045 O.2     1  UNL1       -0.2670
     23 H          14.1384   65.3312    4.1310 H       1  UNL1        0.1734
     24 O          17.1977   70.9416   -3.0062 O.3     1  UNL1       -0.2703
     25 P          17.1997   72.1072   -4.1172 P.3     1  UNL1        0.2208
     26 O          15.8179   72.0630   -4.9432 O.3     1  UNL1       -0.4371
     27 O          17.3348   73.4220   -3.4529 O.2     1  UNL1       -0.5170
     28 O          18.4354   71.8852   -5.1254 O.3     1  UNL1       -0.2865
     29 C          19.0491   70.6124   -5.3363 C.3     1  UNL1        0.2611
     30 C          20.5708   70.7760   -5.3591 C.3     1  UNL1        0.1582
     31 C          20.9608   71.6805   -6.5322 C.3     1  UNL1        0.1625
     32 C          20.4227   71.0743   -7.8312 C.3     1  UNL1        0.1686
     33 C          18.9063   70.8992   -7.7130 C.3     1  UNL1        0.1760
     34 O          22.3849   71.7795   -6.6055 O.3     1  UNL1       -0.3801
     35 O          21.0348   69.8028   -8.0544 O.3     1  UNL1       -0.3794
     36 O          18.6102   70.0734   -6.5849 O.3     1  UNL1       -0.3263
     37 H          22.7033   72.3392   -7.3270 H       1  UNL1        0.2105
     38 H          20.7393   69.3596   -8.8620 H       1  UNL1        0.2105
     39 C          21.1347   72.7230   -4.0067 C.2     1  UNL1        0.2231
     40 C          21.5926   73.3488   -2.7154 C.3     1  UNL1        0.0946
     41 N          21.0164   71.3840   -4.1028 N.am    1  UNL1       -0.2994
     42 O          20.8721   73.4244   -4.9613 O.2     1  UNL1       -0.2751
     43 H          21.2272   70.8228   -3.3402 H       1  UNL1        0.1496
     44 C          18.3688   70.2387   -8.9840 C.3     1  UNL1        0.1693
     45 O          18.4239   71.1709  -10.0659 O.3     1  UNL1       -0.3794
     46 H          18.0979   70.8194  -10.9056 H       1  UNL1        0.2105
@<TRIPOS>BOND
     1    29    30    1
     2    30    41    1
     3    30    31    1
     4    31    34    1
     5    31    32    1
     6    32    35    1
     7    32    33    1
     8    33    36    1
     9    33    44    1
    10    39    40    1
    11    39    42    2
    12    39    41   am
    13    41    43    1
    14    29    28    1
    15    34    37    1
    16    35    38    1
    17    29    36    1
    18    44    45    1
    19    45    46    1
    20    15     6    1
    21    15    16   ar
    22    16    21    2
    23    16    17   ar
    24    17    23    1
    25    17    18   ar
    26    18    19   ar
    27    19    20   ar
    28    15    20   ar
    29    18    22    2
    30     6     7    1
    31     6    11    1
    32     7     9    1
    33     7     8    1
    34     8    13    1
    35     9    10    1
    36     9    12    1
    37    10     5    1
    38    10    11    1
    39    12    14    1
    40     5     4    1
    41     4     1    1
    42     1     2    1
    43     1    24    1
    44     1     3    2
    45    24    25    1
    46    28    25    1
    47    25    26    1
    48    25    27    2
@<TRIPOS>MOLECULE
UD2
 46 48 0 0 0
SMALL
GASTEIGER

@<TRIPOS>ATOM
      1 P          14.9703   71.5184   -1.2170 P.3     1  UNL1        0.2189
      2 O          13.8538   71.8126   -2.3387 O.3     1  UNL1       -0.4371
      3 O          15.0610   72.6724   -0.2957 O.2     1  UNL1       -0.5170
      4 O          14.5625   70.1998   -0.3871 O.3     1  UNL1       -0.3112
      5 C          13.8235   69.1191   -0.9592 C.3     1  UNL1        0.1811
      6 C          10.8122   67.3528   -0.0935 C.3     1  UNL1        0.2383
      7 C          11.9519   66.5122    0.5364 C.3     1  UNL1        0.1895
      8 O          11.5053   65.8572    1.7252 O.3     1  UNL1       -0.3779
      9 C          13.0099   67.5937    0.8657 C.3     1  UNL1        0.1713
     10 C          12.6398   68.7744   -0.0520 C.3     1  UNL1        0.1764
     11 O          11.5176   68.3619   -0.8483 O.3     1  UNL1       -0.3308
     12 O          12.9189   67.9789    2.2384 O.3     1  UNL1       -0.3794
     13 H          12.1827   65.3183    2.1557 H       1  UNL1        0.2106
     14 H          13.0846   67.2587    2.8616 H       1  UNL1        0.2105
     15 N           9.9903   66.5256   -0.9796 N.ar    1  UNL1       -0.2551
     16 C           8.6499   66.5694   -0.8785 C.ar    1  UNL1        0.3323
     17 N           7.8699   65.8199   -1.6798 N.ar    1  UNL1       -0.2743
     18 C           8.4258   65.0096   -2.6034 C.ar    1  UNL1        0.2626
     19 C           9.8355   64.9545   -2.7214 C.ar    1  UNL1        0.0795
     20 C          10.5930   65.7200   -1.9079 C.ar    1  UNL1        0.0869
     21 O           8.1349   67.2956   -0.0504 O.2     1  UNL1       -0.2464
     22 O           7.7210   64.3310   -3.3295 O.2     1  UNL1       -0.2670
     23 H           6.9051   65.8625   -1.5928 H       1  UNL1        0.1734
     24 O          16.3966   71.2848   -1.9273 O.3     1  UNL1       -0.2703
     25 P          16.9872   70.1468   -2.9015 P.3     1  UNL1        0.2208
     26 O          18.1073   69.2970   -2.1159 O.3     1  UNL1       -0.4371
     27 O          15.8941   69.2458   -3.3276 O.2     1  UNL1       -0.5170
     28 O          17.6482   70.8390   -4.1963 O.3     1  UNL1       -0.2865
     29 C          17.9466   70.1219   -5.3954 C.3     1  UNL1        0.2611
     30 C          19.3447   70.5057   -5.8862 C.3     1  UNL1        0.1582
     31 C          19.3665   72.0004   -6.2205 C.3     1  UNL1        0.1625
     32 C          18.2843   72.2954   -7.2626 C.3     1  UNL1        0.1686
     33 C          16.9267   71.8425   -6.7186 C.3     1  UNL1        0.1760
     34 O          20.6471   72.3525   -6.7491 O.3     1  UNL1       -0.3801
     35 O          18.5765   71.5870   -8.4685 O.3     1  UNL1       -0.3794
     36 O          16.9837   70.4510   -6.3988 O.3     1  UNL1       -0.3263
     37 H          20.7324   73.2870   -6.9825 H       1  UNL1        0.2105
     38 H          17.9299   71.7271   -9.1743 H       1  UNL1        0.2105
     39 C          20.6601   71.1844   -3.9506 C.2     1  UNL1        0.2231
     40 C          21.6690   70.8960   -2.8701 C.3     1  UNL1        0.0946
     41 N          20.3263   70.2245   -4.8356 N.am    1  UNL1       -0.2994
     42 O          20.1472   72.2815   -4.0247 O.2     1  UNL1       -0.2751
     43 H          20.7369   69.3475   -4.7773 H       1  UNL1        0.1496
     44 C          15.8485   72.0791   -7.7778 C.3     1  UNL1        0.1693
     45 O          15.7781   70.9476   -8.6479 O.3     1  UNL1       -0.3794
     46 H          15.1138   71.0282   -9.3460 H       1  UNL1        0.2105
@<TRIPOS>BOND
     1    29    30    1
     2    30    41    1
     3    30    31    1
     4    31    34    1
     5    31    32    1
     6    32    35    1
     7    32    33    1
     8    33    36    1
     9    33    44    1
    10    39    40    1
    11    39    42    2
    12    39    41   am
    13    41    43    1
    14    29    28    1
    15    34    37    1
    16    35    38    1
    17    29    36    1
    18    44    45    1
    19    45    46    1
    20    15     6    1
    21    15    16   ar
    22    16    21    2
    23    16    17   ar
    24    17    23    1
    25    17    18   ar
    26    18    19   ar
    27    19    20   ar
    28    15    20   ar
    29    18    22    2
    30     6     7    1
    31     6    11    1
    32     7     9    1
    33     7     8    1
    34     8    13    1
    35     9    10    1
    36     9    12    1
    37    10     5    1
    38    10    11    1
    39    12    14    1
    40     5     4    1
    41     4     1    1
    42     1     2    1
    43     1    24    1
    44     1     3    2
    45    24    25    1
    46    28    25    1
    47    25    26    1
    48    25    27    2
@<TRIPOS>MOLECULE
UD2
 46 48 0 0 0
SMALL
GASTEIGER

@<TRIPOS>ATOM
      1 P          21.9791   71.3175   -0.0054 P.3     1  UNL1        0.2189
      2 O          21.6221   70.0164    0.8727 O.3     1  UNL1       -0.4371
      3 O          20.8461   72.2680    0.0369 O.2     1  UNL1       -0.5170
      4 O          23.2958   72.0248    0.5945 O.3     1  UNL1       -0.3112
      5 C          23.2409   73.1295    1.4989 C.3     1  UNL1        0.1811
      6 C          22.7797   73.3549    5.0588 C.3     1  UNL1        0.2383
      7 C          21.5379   74.0625    4.4594 C.3     1  UNL1        0.1895
      8 O          20.4026   73.9110    5.3138 O.3     1  UNL1       -0.3779
      9 C          21.3356   73.2942    3.1305 C.3     1  UNL1        0.1713
     10 C          22.7090   72.6536    2.8530 C.3     1  UNL1        0.1764
     11 O          23.5965   73.0733    3.9016 O.3     1  UNL1       -0.3308
     12 O          20.3350   72.2863    3.2843 O.3     1  UNL1       -0.3794
     13 H          19.6008   74.3372    4.9821 H       1  UNL1        0.2106
     14 H          19.4623   72.6298    3.5183 H       1  UNL1        0.2105
     15 N          23.4844   74.2452    5.9839 N.ar    1  UNL1       -0.2551
     16 C          24.5382   74.9589    5.5494 C.ar    1  UNL1        0.3323
     17 N          25.2046   75.7848    6.3776 N.ar    1  UNL1       -0.2743
     18 C          24.8207   75.9105    7.6642 C.ar    1  UNL1        0.2626
     19 C          23.7124   75.1660    8.1349 C.ar    1  UNL1        0.0795
     20 C          23.0602   74.3488    7.2814 C.ar    1  UNL1        0.0869
     21 O          24.8954   74.8556    4.3917 O.2     1  UNL1       -0.2464
     22 O          25.4227   76.6580    8.4148 O.2     1  UNL1       -0.2670
     23 H          25.9631   76.2912    6.0483 H       1  UNL1        0.1734
     24 O          22.2544   70.8775   -1.5298 O.3     1  UNL1       -0.2703
     25 P          23.0968   71.5182   -2.7435 P.3     1  UNL1        0.2208
     26 O          23.4195   73.0617   -2.4161 O.3     1  UNL1       -0.4371
     27 O          24.3646   70.7746   -2.9110 O.2     1  UNL1       -0.5170
     28 O          22.2364   71.4257   -4.1014 O.3     1  UNL1       -0.2865
     29 C          21.2039   72.3556   -4.4336 C.3     1  UNL1        0.2611
     30 C          20.0362   71.6115   -5.0860 C.3     1  UNL1        0.1582
     31 C          20.5177   70.9660   -6.3891 C.3     1  UNL1        0.1625
     32 C          21.0961   72.0517   -7.3007 C.3     1  UNL1        0.1686
     33 C          22.2232   72.7789   -6.5627 C.3     1  UNL1        0.1760
     34 O          19.4163   70.3307   -7.0423 O.3     1  UNL1       -0.3801
     35 O          20.0695   72.9843   -7.6437 O.3     1  UNL1       -0.3794
     36 O          21.7159   73.3295   -5.3456 O.3     1  UNL1       -0.3263
     37 H          19.6495   69.8995   -7.8758 H       1  UNL1        0.2105
     38 H          20.3660   73.7020   -8.2207 H       1  UNL1        0.2105
     39 C          18.2778   70.6101   -3.7286 C.2     1  UNL1        0.2231
     40 C          17.7755   69.5419   -2.7930 C.3     1  UNL1        0.0946
     41 N          19.5485   70.5723   -4.1758 N.am    1  UNL1       -0.2994
     42 O          17.5382   71.5054   -4.0803 O.2     1  UNL1       -0.2751
     43 H          20.1404   69.8572   -3.8941 H       1  UNL1        0.1496
     44 C          22.7667   73.9047   -7.4446 C.3     1  UNL1        0.1693
     45 O          23.4001   73.3447   -8.5968 O.3     1  UNL1       -0.3794
     46 H          23.7689   74.0023   -9.2022 H       1  UNL1        0.2105
@<TRIPOS>BOND
     1    29    30    1
     2    30    41    1
     3    30    31    1
     4    31    34    1
     5    31    32    1
     6    32    35    1
     7    32    33    1
     8    33    36    1
     9    33    44    1
    10    39    40    1
    11    39    42    2
    12    39    41   am
    13    41    43    1
    14    29    28    1
    15    34    37    1
    16    35    38    1
    17    29    36    1
    18    44    45    1
    19    45    46    1
    20    15     6    1
    21    15    16   ar
    22    16    21    2
    23    16    17   ar
    24    17    23    1
    25    17    18   ar
    26    18    19   ar
    27    19    20   ar
    28    15    20   ar
    29    18    22    2
    30     6     7    1
    31     6    11    1
    32     7     9    1
    33     7     8    1
    34     8    13    1
    35     9    10    1
    36     9    12    1
    37    10     5    1
    38    10    11    1
    39    12    14    1
    40     5     4    1
    41     4     1    1
    42     1     2    1
    43     1    24    1
    44     1     3    2
    45    24    25    1
    46    28    25    1
    47    25    26    1
    48    25    27    2
@<TRIPOS>MOLECULE
UD2
 46 48 0 0 0
SMALL
GASTEIGER

@<TRIPOS>ATOM
      1 P          20.8218   74.3026   -1.8752 P.3     1  UNL1        0.2189
      2 O          19.5080   73.4236   -1.5704 O.3     1  UNL1       -0.4371
      3 O          20.4195   75.6649   -2.2889 O.2     1  UNL1       -0.5170
      4 O          21.7283   74.3907   -0.5470 O.3     1  UNL1       -0.3112
      5 C          21.1749   74.4622    0.7684 C.3     1  UNL1        0.1811
      6 C          23.2215   72.0958    2.5426 C.3     1  UNL1        0.2383
      7 C          22.5697   72.9575    3.6538 C.3     1  UNL1        0.1895
      8 O          22.3776   72.1929    4.8455 O.3     1  UNL1       -0.3779
      9 C          21.2108   73.3371    3.0160 C.3     1  UNL1        0.1713
     10 C          21.4379   73.1461    1.5043 C.3     1  UNL1        0.1764
     11 O          22.8070   72.7505    1.3239 O.3     1  UNL1       -0.3308
     12 O          20.1801   72.4643    3.4816 O.3     1  UNL1       -0.3794
     13 H          21.9731   72.6886    5.5703 H       1  UNL1        0.2106
     14 H          20.0349   72.5001    4.4366 H       1  UNL1        0.2105
     15 N          24.6807   72.1118    2.6668 N.ar    1  UNL1       -0.2551
     16 C          25.3858   71.0022    2.3831 C.ar    1  UNL1        0.3323
     17 N          26.7278   70.9882    2.4887 N.ar    1  UNL1       -0.2743
     18 C          27.3892   72.0958    2.8817 C.ar    1  UNL1        0.2626
     19 C          26.6597   73.2711    3.1825 C.ar    1  UNL1        0.0795
     20 C          25.3153   73.2579    3.0639 C.ar    1  UNL1        0.0869
     21 O          24.8027   69.9963    2.0274 O.2     1  UNL1       -0.2464
     22 O          28.6038   72.0846    2.9772 O.2     1  UNL1       -0.2670
     23 H          27.2207   70.1794    2.2814 H       1  UNL1        0.1734
     24 O          21.6686   73.6105   -3.0571 O.3     1  UNL1       -0.2703
     25 P          21.7846   72.1045   -3.6152 P.3     1  UNL1        0.2208
     26 O          23.1553   71.9444   -4.4454 O.3     1  UNL1       -0.4371
     27 O          21.7825   71.1559   -2.4800 O.2     1  UNL1       -0.5170
     28 O          20.5333   71.7915   -4.5790 O.3     1  UNL1       -0.2865
     29 C          20.3494   70.5345   -5.2326 C.3     1  UNL1        0.2611
     30 C          20.2619   70.7527   -6.7450 C.3     1  UNL1        0.1582
     31 C          19.0399   71.6222   -7.0569 C.3     1  UNL1        0.1625
     32 C          17.7875   70.9441   -6.4948 C.3     1  UNL1        0.1686
     33 C          17.9704   70.7186   -4.9916 C.3     1  UNL1        0.1760
     34 O          18.9084   71.7702   -8.4725 O.3     1  UNL1       -0.3801
     35 O          17.5912   69.6879   -7.1464 O.3     1  UNL1       -0.3794
     36 O          19.1406   69.9293   -4.7690 O.3     1  UNL1       -0.3263
     37 H          18.1537   72.3113   -8.7425 H       1  UNL1        0.2105
     38 H          16.8136   69.2015   -6.8385 H       1  UNL1        0.2105
     39 C          21.5032   72.7709   -7.3139 C.2     1  UNL1        0.2231
     40 C          22.7503   73.4653   -7.7948 C.3     1  UNL1        0.0946
     41 N          21.4753   71.4273   -7.2131 N.am    1  UNL1       -0.2994
     42 O          20.5227   73.4211   -7.0171 O.2     1  UNL1       -0.2751
     43 H          22.2585   70.9070   -7.4512 H       1  UNL1        0.1496
     44 C          16.7479   69.9876   -4.4334 C.3     1  UNL1        0.1693
     45 O          16.8772   68.5856   -4.6787 O.3     1  UNL1       -0.3794
     46 H          16.1359   68.0584   -4.3508 H       1  UNL1        0.2105
@<TRIPOS>BOND
     1    29    30    1
     2    30    41    1
     3    30    31    1
     4    31    34    1
     5    31    32    1
     6    32    35    1
     7    32    33    1
     8    33    36    1
     9    33    44    1
    10    39    40    1
    11    39    42    2
    12    39    41   am
    13    41    43    1
    14    29    28    1
    15    34    37    1
    16    35    38    1
    17    29    36    1
    18    44    45    1
    19    45    46    1
    20    15     6    1
    21    15    16   ar
    22    16    21    2
    23    16    17   ar
    24    17    23    1
    25    17    18   ar
    26    18    19   ar
    27    19    20   ar
    28    15    20   ar
    29    18    22    2
    30     6     7    1
    31     6    11    1
    32     7     9    1
    33     7     8    1
    34     8    13    1
    35     9    10    1
    36     9    12    1
    37    10     5    1
    38    10    11    1
    39    12    14    1
    40     5     4    1
    41     4     1    1
    42     1     2    1
    43     1    24    1
    44     1     3    2
    45    24    25    1
    46    28    25    1
    47    25    26    1
    48    25    27    2
@<TRIPOS>MOLECULE
UD2
 46 48 0 0 0
SMALL
GASTEIGER

@<TRIPOS>ATOM
      1 P          21.1231   72.0025   -2.4819 P.3     1  UNL1        0.2189
      2 O          21.5286   72.7886   -1.1369 O.3     1  UNL1       -0.4371
      3 O          21.6560   70.6234   -2.4277 O.2     1  UNL1       -0.5170
      4 O          19.5186   71.9533   -2.6115 O.3     1  UNL1       -0.3112
      5 C          18.7610   70.7550   -2.4341 C.3     1  UNL1        0.1811
      6 C          17.0689   70.5615   -5.6020 C.3     1  UNL1        0.2383
      7 C          17.0072   69.1190   -5.0386 C.3     1  UNL1        0.1895
      8 O          15.8254   68.4487   -5.4809 O.3     1  UNL1       -0.3779
      9 C          16.9620   69.3681   -3.5110 C.3     1  UNL1        0.1713
     10 C          17.5309   70.7901   -3.3445 C.3     1  UNL1        0.1764
     11 O          17.9029   71.2578   -4.6507 O.3     1  UNL1       -0.3308
     12 O          15.6163   69.3084   -3.0354 O.3     1  UNL1       -0.3794
     13 H          15.7416   67.5423   -5.1551 H       1  UNL1        0.2106
     14 H          15.1887   68.4518   -3.1691 H       1  UNL1        0.2105
     15 N          17.6837   70.5702   -6.9313 N.ar    1  UNL1       -0.2551
     16 C          16.9089   70.4562   -8.0247 C.ar    1  UNL1        0.3323
     17 N          17.4469   70.4609   -9.2586 N.ar    1  UNL1       -0.2743
     18 C          18.7806   70.5829   -9.4171 C.ar    1  UNL1        0.2626
     19 C          19.6080   70.7048   -8.2749 C.ar    1  UNL1        0.0795
     20 C          19.0412   70.7012   -7.0501 C.ar    1  UNL1        0.0869
     21 O          15.7048   70.3457   -7.8968 O.2     1  UNL1       -0.2464
     22 O          19.2688   70.5878  -10.5334 O.2     1  UNL1       -0.2670
     23 H          16.8740   70.3765  -10.0363 H       1  UNL1        0.1734
     24 O          21.7406   72.7672   -3.7576 O.3     1  UNL1       -0.2703
     25 P          23.1933   72.7900   -4.4518 P.3     1  UNL1        0.2208
     26 O          24.1582   71.7346   -3.7110 O.3     1  UNL1       -0.4371
     27 O          23.0642   72.4222   -5.8788 O.2     1  UNL1       -0.5170
     28 O          23.8218   74.2677   -4.3327 O.3     1  UNL1       -0.2865
     29 C          23.1412   75.3546   -3.7029 C.3     1  UNL1        0.2611
     30 C          23.7777   76.6770   -4.1375 C.3     1  UNL1        0.1582
     31 C          25.2365   76.7089   -3.6713 C.3     1  UNL1        0.1625
     32 C          25.2805   76.5148   -2.1532 C.3     1  UNL1        0.1686
     33 C          24.5859   75.1983   -1.7951 C.3     1  UNL1        0.1760
     34 O          25.8177   77.9706   -4.0085 O.3     1  UNL1       -0.3801
     35 O          24.6071   77.6003   -1.5132 O.3     1  UNL1       -0.3794
     36 O          23.2433   75.2217   -2.2837 O.3     1  UNL1       -0.3263
     37 H          26.7432   78.0604   -3.7429 H       1  UNL1        0.2105
     38 H          24.5955   77.5422   -0.5475 H       1  UNL1        0.2105
     39 C          23.4088   77.9633   -6.1739 C.2     1  UNL1        0.2231
     40 C          23.3573   78.0779   -7.6748 C.3     1  UNL1        0.0946
     41 N          23.7277   76.7876   -5.5975 N.am    1  UNL1       -0.2994
     42 O          23.1629   78.9297   -5.4828 O.2     1  UNL1       -0.2751
     43 H          23.9234   76.0144   -6.1497 H       1  UNL1        0.1496
     44 C          24.5729   75.0259   -0.2750 C.3     1  UNL1        0.1693
     45 O          24.1796   73.6910    0.0504 O.3     1  UNL1       -0.3794
     46 H          24.1493   73.5097    0.9997 H       1  UNL1        0.2105
@<TRIPOS>BOND
     1    29    30    1
     2    30    41    1
     3    30    31    1
     4    31    34    1
     5    31    32    1
     6    32    35    1
     7    32    33    1
     8    33    36    1
     9    33    44    1
    10    39    40    1
    11    39    42    2
    12    39    41   am
    13    41    43    1
    14    29    28    1
    15    34    37    1
    16    35    38    1
    17    29    36    1
    18    44    45    1
    19    45    46    1
    20    15     6    1
    21    15    16   ar
    22    16    21    2
    23    16    17   ar
    24    17    23    1
    25    17    18   ar
    26    18    19   ar
    27    19    20   ar
    28    15    20   ar
    29    18    22    2
    30     6     7    1
    31     6    11    1
    32     7     9    1
    33     7     8    1
    34     8    13    1
    35     9    10    1
    36     9    12    1
    37    10     5    1
    38    10    11    1
    39    12    14    1
    40     5     4    1
    41     4     1    1
    42     1     2    1
    43     1    24    1
    44     1     3    2
    45    24    25    1
    46    28    25    1
    47    25    26    1
    48    25    27    2
@<TRIPOS>MOLECULE
UD2
 46 48 0 0 0
SMALL
GASTEIGER

@<TRIPOS>ATOM
      1 P          21.8704   72.9294   -6.1812 P.3     1  UNL1        0.2189
      2 O          23.1025   73.2555   -7.1645 O.3     1  UNL1       -0.4371
      3 O          20.9292   74.0708   -6.1733 O.2     1  UNL1       -0.5170
      4 O          21.1075   71.6082   -6.6971 O.3     1  UNL1       -0.3112
      5 C          20.6626   71.4440   -8.0449 C.3     1  UNL1        0.1811
      6 C          17.5207   70.1434   -6.8727 C.3     1  UNL1        0.2383
      7 C          17.1337   71.1669   -7.9703 C.3     1  UNL1        0.1895
      8 O          15.9258   70.7781   -8.6272 O.3     1  UNL1       -0.3779
      9 C          18.3405   71.0798   -8.9364 C.3     1  UNL1        0.1713
     10 C          19.4704   70.4844   -8.0748 C.3     1  UNL1        0.1764
     11 O          18.9497   70.3103   -6.7473 O.3     1  UNL1       -0.3308
     12 O          18.0397   70.2162  -10.0339 O.3     1  UNL1       -0.3794
     13 H          15.6419   71.3874   -9.3221 H       1  UNL1        0.2106
     14 H          17.2967   70.5127  -10.5765 H       1  UNL1        0.2105
     15 N          16.8509   70.4630   -5.6101 N.ar    1  UNL1       -0.2551
     16 C          16.4757   69.4697   -4.7847 C.ar    1  UNL1        0.3323
     17 N          15.8582   69.7342   -3.6181 N.ar    1  UNL1       -0.2743
     18 C          15.6067   71.0090   -3.2571 C.ar    1  UNL1        0.2626
     19 C          15.9971   72.0645   -4.1159 C.ar    1  UNL1        0.0795
     20 C          16.6183   71.7704   -5.2774 C.ar    1  UNL1        0.0869
     21 O          16.6962   68.3155   -5.0972 O.2     1  UNL1       -0.2464
     22 O          15.0482   71.2498   -2.2014 O.2     1  UNL1       -0.2670
     23 H          15.5933   69.0061   -3.0353 H       1  UNL1        0.1734
     24 O          22.4249   72.6802   -4.6900 O.3     1  UNL1       -0.2703
     25 P          23.3354   73.5400   -3.6777 P.3     1  UNL1        0.2208
     26 O          24.8588   73.5459   -4.2000 O.3     1  UNL1       -0.4371
     27 O          22.8298   74.9289   -3.6175 O.2     1  UNL1       -0.5170
     28 O          23.2735   72.8818   -2.2095 O.3     1  UNL1       -0.2865
     29 C          22.3045   73.2564   -1.2287 C.3     1  UNL1        0.2611
     30 C          22.7695   72.7907    0.1532 C.3     1  UNL1        0.1582
     31 C          22.8712   71.2623    0.1599 C.3     1  UNL1        0.1625
     32 C          21.5133   70.6693   -0.2260 C.3     1  UNL1        0.1686
     33 C          21.0967   71.2169   -1.5936 C.3     1  UNL1        0.1760
     34 O          23.2339   70.8139    1.4678 O.3     1  UNL1       -0.3801
     35 O          20.5377   71.0334    0.7522 O.3     1  UNL1       -0.3794
     36 O          21.0513   72.6441   -1.5398 O.3     1  UNL1       -0.3263
     37 H          23.3172   69.8535    1.5449 H       1  UNL1        0.2105
     38 H          19.6511   70.6915    0.5707 H       1  UNL1        0.2105
     39 C          24.3381   73.8700    1.6738 C.2     1  UNL1        0.2231
     40 C          25.6875   74.4657    1.9785 C.3     1  UNL1        0.0946
     41 N          24.0823   73.3701    0.4487 N.am    1  UNL1       -0.2994
     42 O          23.4804   73.8401    2.5315 O.2     1  UNL1       -0.2751
     43 H          24.7674   73.3948   -0.2376 H       1  UNL1        0.1496
     44 C          19.7134   70.6756   -1.9596 C.3     1  UNL1        0.1693
     45 O          18.7182   71.6457   -1.6269 O.3     1  UNL1       -0.3794
     46 H          17.8146   71.3693   -1.8321 H       1  UNL1        0.2105
@<TRIPOS>BOND
     1    29    30    1
     2    30    41    1
     3    30    31    1
     4    31    34    1
     5    31    32    1
     6    32    35    1
     7    32    33    1
     8    33    36    1
     9    33    44    1
    10    39    40    1
    11    39    42    2
    12    39    41   am
    13    41    43    1
    14    29    28    1
    15    34    37    1
    16    35    38    1
    17    29    36    1
    18    44    45    1
    19    45    46    1
    20    15     6    1
    21    15    16   ar
    22    16    21    2
    23    16    17   ar
    24    17    23    1
    25    17    18   ar
    26    18    19   ar
    27    19    20   ar
    28    15    20   ar
    29    18    22    2
    30     6     7    1
    31     6    11    1
    32     7     9    1
    33     7     8    1
    34     8    13    1
    35     9    10    1
    36     9    12    1
    37    10     5    1
    38    10    11    1
    39    12    14    1
    40     5     4    1
    41     4     1    1
    42     1     2    1
    43     1    24    1
    44     1     3    2
    45    24    25    1
    46    28    25    1
    47    25    26    1
    48    25    27    2
@<TRIPOS>MOLECULE
UD2
 46 48 0 0 0
SMALL
GASTEIGER

@<TRIPOS>ATOM
      1 P          22.7556   71.7587   -2.9290 P.3     1  UNL1        0.2189
      2 O          23.0128   73.3332   -3.1438 O.3     1  UNL1       -0.4371
      3 O          23.9814   71.0062   -3.2753 O.2     1  UNL1       -0.5170
      4 O          22.3733   71.4827   -1.3891 O.3     1  UNL1       -0.3112
      5 C          23.3418   71.1328   -0.3986 C.3     1  UNL1        0.1811
      6 C          23.2537   74.0870    1.6511 C.3     1  UNL1        0.2383
      7 C          21.8485   74.0220    1.0006 C.3     1  UNL1        0.1895
      8 O          20.8604   74.5894    1.8630 O.3     1  UNL1       -0.3779
      9 C          21.6334   72.4968    0.8425 C.3     1  UNL1        0.1713
     10 C          23.0568   71.9091    0.8895 C.3     1  UNL1        0.1764
     11 O          23.9709   73.0107    1.0086 O.3     1  UNL1       -0.3308
     12 O          20.8464   71.9895    1.9214 O.3     1  UNL1       -0.3794
     13 H          19.9646   74.5726    1.4998 H       1  UNL1        0.2106
     14 H          19.9595   72.3701    1.9752 H       1  UNL1        0.2105
     15 N          23.8934   75.3741    1.3697 N.ar    1  UNL1       -0.2551
     16 C          24.5528   75.5512    0.2110 C.ar    1  UNL1        0.3323
     17 N          25.1502   76.7235   -0.0740 N.ar    1  UNL1       -0.2743
     18 C          25.0939   77.7451    0.8044 C.ar    1  UNL1        0.2626
     19 C          24.4022   77.5729    2.0275 C.ar    1  UNL1        0.0795
     20 C          23.8089   76.3883    2.2852 C.ar    1  UNL1        0.0869
     21 O          24.6116   74.6388   -0.5905 O.2     1  UNL1       -0.2464
     22 O          25.6338   78.8067    0.5476 O.2     1  UNL1       -0.2670
     23 H          25.6226   76.8339   -0.9135 H       1  UNL1        0.1734
     24 O          21.5450   71.2783   -3.8762 O.3     1  UNL1       -0.2703
     25 P          19.9492   71.1772   -3.6859 P.3     1  UNL1        0.2208
     26 O          19.6132   70.0938   -2.5425 O.3     1  UNL1       -0.4371
     27 O          19.4151   72.4974   -3.2858 O.2     1  UNL1       -0.5170
     28 O          19.2712   70.7215   -5.0734 O.3     1  UNL1       -0.2865
     29 C          18.4406   71.5831   -5.8539 C.3     1  UNL1        0.2611
     30 C          16.9997   71.0677   -5.8254 C.3     1  UNL1        0.1582
     31 C          16.9522   69.6748   -6.4611 C.3     1  UNL1        0.1625
     32 C          17.5118   69.7555   -7.8840 C.3     1  UNL1        0.1686
     33 C          18.9334   70.3216   -7.8331 C.3     1  UNL1        0.1760
     34 O          15.5990   69.2164   -6.5054 O.3     1  UNL1       -0.3801
     35 O          16.6846   70.6108   -8.6749 O.3     1  UNL1       -0.3794
     36 O          18.9114   71.6040   -7.2030 O.3     1  UNL1       -0.3263
     37 H          15.4943   68.3380   -6.8961 H       1  UNL1        0.2105
     38 H          16.9810   70.7090   -9.5905 H       1  UNL1        0.2105
     39 C          16.5790   69.8144   -3.7785 C.2     1  UNL1        0.2231
     40 C          16.1022   69.7325   -2.3521 C.3     1  UNL1        0.0946
     41 N          16.5356   70.9888   -4.4380 N.am    1  UNL1       -0.2994
     42 O          17.0024   68.8226   -4.3346 O.2     1  UNL1       -0.2751
     43 H          16.1962   71.7818   -3.9941 H       1  UNL1        0.1496
     44 C          19.4777   70.4613   -9.2560 C.3     1  UNL1        0.1693
     45 O          18.7099   71.4345   -9.9671 O.3     1  UNL1       -0.3794
     46 H          18.9996   71.5752  -10.8789 H       1  UNL1        0.2105
@<TRIPOS>BOND
     1    29    30    1
     2    30    41    1
     3    30    31    1
     4    31    34    1
     5    31    32    1
     6    32    35    1
     7    32    33    1
     8    33    36    1
     9    33    44    1
    10    39    40    1
    11    39    42    2
    12    39    41   am
    13    41    43    1
    14    29    28    1
    15    34    37    1
    16    35    38    1
    17    29    36    1
    18    44    45    1
    19    45    46    1
    20    15     6    1
    21    15    16   ar
    22    16    21    2
    23    16    17   ar
    24    17    23    1
    25    17    18   ar
    26    18    19   ar
    27    19    20   ar
    28    15    20   ar
    29    18    22    2
    30     6     7    1
    31     6    11    1
    32     7     9    1
    33     7     8    1
    34     8    13    1
    35     9    10    1
    36     9    12    1
    37    10     5    1
    38    10    11    1
    39    12    14    1
    40     5     4    1
    41     4     1    1
    42     1     2    1
    43     1    24    1
    44     1     3    2
    45    24    25    1
    46    28    25    1
    47    25    26    1
    48    25    27    2
