@<TRIPOS>MOLECULE
UD1
 46 48 0 0 0
SMALL
GASTEIGER

@<TRIPOS>ATOM
      1 P          21.7100   70.8424   -2.5287 P.3     1  UNL1        0.2189
      2 O          23.1772   70.9601   -2.6786 O.2     1  UNL1       -0.5170
      3 O          21.2736   69.3034   -2.7117 O.3     1  UNL1       -0.4371
      4 O          20.9829   71.7422   -3.6487 O.3     1  UNL1       -0.3112
      5 C          19.9356   72.4562   -2.9902 C.3     1  UNL1        0.1811
      6 C          17.9149   71.3461   -5.7491 C.3     1  UNL1        0.2383
      7 C          18.0006   70.1161   -4.8111 C.3     1  UNL1        0.1895
      8 O          16.8198   69.3186   -4.9047 O.3     1  UNL1       -0.3779
      9 C          18.1111   70.7793   -3.4136 C.3     1  UNL1        0.1713
     10 C          18.6121   72.2052   -3.7144 C.3     1  UNL1        0.1764
     11 O          18.8066   72.3012   -5.1358 O.3     1  UNL1       -0.3308
     12 O          16.8332   70.8155   -2.7745 O.3     1  UNL1       -0.3794
     13 H          16.9367   68.5729   -4.2999 H       1  UNL1        0.2106
     14 H          16.5480   69.8982   -2.6683 H       1  UNL1        0.2105
     15 N          18.3720   71.0046   -7.0966 N.ar    1  UNL1       -0.2551
     16 C          17.4763   70.6477   -8.0335 C.ar    1  UNL1        0.3323
     17 N          17.8679   70.3322   -9.2823 N.ar    1  UNL1       -0.2743
     18 C          19.1749   70.3607   -9.6122 C.ar    1  UNL1        0.2626
     19 C          20.1290   70.7290   -8.6339 C.ar    1  UNL1        0.0795
     20 C          19.7083   71.0458   -7.3906 C.ar    1  UNL1        0.0869
     21 O          16.2939   70.6173   -7.7513 O.2     1  UNL1       -0.2464
     22 O          19.5305   70.0711  -10.7396 O.2     1  UNL1       -0.2670
     23 H          17.2077   70.0816   -9.9468 H       1  UNL1        0.1734
     24 O          21.2772   71.3537   -1.0658 O.3     1  UNL1       -0.2703
     25 P          22.3089   70.6972   -0.0198 P.3     1  UNL1        0.2208
     26 O          23.5494   70.3105   -0.7274 O.2     1  UNL1       -0.5170
     27 O          21.6420   69.3913    0.6450 O.3     1  UNL1       -0.4371
     28 O          22.6590   71.7648    1.1325 O.3     1  UNL1       -0.2865
     29 C          21.8403   72.9118    0.8975 C.3     1  UNL1        0.2611
     30 C          22.7163   74.0652    0.4051 C.3     1  UNL1        0.1582
     31 C          23.7842   74.3700    1.4617 C.3     1  UNL1        0.1625
     32 C          23.0893   74.6071    2.8067 C.3     1  UNL1        0.1686
     33 C          22.1874   73.4112    3.1193 C.3     1  UNL1        0.1760
     34 O          24.5128   75.5392    1.0827 O.3     1  UNL1       -0.3801
     35 O          24.0722   74.7478    3.8342 O.3     1  UNL1       -0.3794
     36 O          21.1874   73.2844    2.1092 O.3     1  UNL1       -0.3263
     37 H          25.1721   75.6935    1.7731 H       1  UNL1        0.2105
     38 H          23.5927   74.8942    4.6619 H       1  UNL1        0.2105
     39 C          23.4520   74.5749   -1.8606 C.2     1  UNL1        0.2231
     40 C          24.1186   74.1840   -3.1548 C.3     1  UNL1        0.0946
     41 N          23.3642   73.6862   -0.8522 N.am    1  UNL1       -0.2994
     42 O          22.9938   75.6895   -1.7270 O.2     1  UNL1       -0.2751
     43 H          23.7306   72.7940   -0.9589 H       1  UNL1        0.1496
     44 C          21.5135   73.6233    4.4765 C.3     1  UNL1        0.1693
     45 O          21.8768   72.5609    5.3605 O.3     1  UNL1       -0.3794
     46 H          21.4320   72.7323    6.2016 H       1  UNL1        0.2105
@<TRIPOS>BOND
     1    29    30    1
     2    29    28    1
     3    29    36    1
     4    30    31    1
     5    30    41    1
     6    31    32    1
     7    31    34    1
     8    32    33    1
     9    32    35    1
    10    33    44    1
    11    33    36    1
    12    44    45    1
    13    39    40    1
    14    39    41   am
    15    39    42    2
    16    41    43    1
    17    28    25    1
    18    34    37    1
    19    35    38    1
    20    45    46    1
    21    15    16   ar
    22    15    20   ar
    23    15     6    1
    24    16    17   ar
    25    16    21    2
    26    17    18   ar
    27    17    23    1
    28    18    19   ar
    29    18    22    2
    30    19    20   ar
    31     6     7    1
    32     6    11    1
    33     7     8    1
    34     7     9    1
    35     8    13    1
    36     9    10    1
    37     9    12    1
    38    10    11    1
    39    10     5    1
    40    12    14    1
    41     5     4    1
    42     4     1    1
    43     1     2    2
    44     1     3    1
    45     1    24    1
    46    24    25    1
    47    25    26    2
    48    25    27    1
@<TRIPOS>MOLECULE
UD1
 46 48 0 0 0
SMALL
GASTEIGER

@<TRIPOS>ATOM
      1 P          21.9945   70.8772   -0.5538 P.3     1  UNL1        0.2189
      2 O          22.8263   70.3680   -1.6664 O.2     1  UNL1       -0.5170
      3 O          21.5998   69.6590    0.4223 O.3     1  UNL1       -0.4371
      4 O          20.6544   71.5435   -1.1478 O.3     1  UNL1       -0.3112
      5 C          20.6995   71.3710   -2.5650 C.3     1  UNL1        0.1811
      6 C          18.2254   71.2006   -5.1683 C.3     1  UNL1        0.2383
      7 C          18.0679   69.8672   -4.3952 C.3     1  UNL1        0.1895
      8 O          16.7160   69.4092   -4.4363 O.3     1  UNL1       -0.3779
      9 C          18.4699   70.2768   -2.9545 C.3     1  UNL1        0.1713
     10 C          19.2983   71.5616   -3.1478 C.3     1  UNL1        0.1764
     11 O          19.3861   71.8075   -4.5617 O.3     1  UNL1       -0.3308
     12 O          17.3070   70.5376   -2.1655 O.3     1  UNL1       -0.3794
     13 H          16.6861   68.5797   -3.9398 H       1  UNL1        0.2106
     14 H          16.8021   69.7141   -2.1317 H       1  UNL1        0.2105
     15 N          18.4574   70.9515   -6.5915 N.ar    1  UNL1       -0.2551
     16 C          17.4102   70.8078   -7.4222 C.ar    1  UNL1        0.3323
     17 N          17.5940   70.5818   -8.7365 N.ar    1  UNL1       -0.2743
     18 C          18.8404   70.4864   -9.2418 C.ar    1  UNL1        0.2626
     19 C          19.9518   70.6298   -8.3775 C.ar    1  UNL1        0.0795
     20 C          19.7389   70.8611   -7.0643 C.ar    1  UNL1        0.0869
     21 O          16.2800   70.8913   -6.9815 O.2     1  UNL1       -0.2464
     22 O          19.0077   70.2774  -10.4291 O.2     1  UNL1       -0.2670
     23 H          16.8271   70.4854   -9.3220 H       1  UNL1        0.1734
     24 O          22.8220   71.9820    0.2729 O.3     1  UNL1       -0.2703
     25 P          21.8081   72.6100    1.3532 P.3     1  UNL1        0.2208
     26 O          21.1726   71.5195    2.1251 O.2     1  UNL1       -0.5170
     27 O          20.6722   73.4609    0.5930 O.3     1  UNL1       -0.4371
     28 O          22.6188   73.5744    2.3547 O.3     1  UNL1       -0.2865
     29 C          21.7772   74.6980    2.6201 C.3     1  UNL1        0.2611
     30 C          22.6050   75.9813    2.5306 C.3     1  UNL1        0.1582
     31 C          23.7502   75.9110    3.5471 C.3     1  UNL1        0.1625
     32 C          23.1610   75.6102    4.9293 C.3     1  UNL1        0.1686
     33 C          22.2936   74.3529    4.8384 C.3     1  UNL1        0.1760
     34 O          24.4398   77.1619    3.5788 O.3     1  UNL1       -0.3801
     35 O          24.2202   75.3952    5.8639 O.3     1  UNL1       -0.3794
     36 O          21.2186   74.5737    3.9262 O.3     1  UNL1       -0.3263
     37 H          25.1501   77.0730    4.2291 H       1  UNL1        0.2105
     38 H          23.8058   75.2088    6.7183 H       1  UNL1        0.2105
     39 C          24.4089   75.6996    0.9179 C.2     1  UNL1        0.2231
     40 C          24.9749   75.8393   -0.4722 C.3     1  UNL1        0.0946
     41 N          23.1551   76.1163    1.1803 N.am    1  UNL1       -0.2994
     42 O          25.0824   75.2127    1.8007 O.2     1  UNL1       -0.2751
     43 H          22.6160   76.5062    0.4740 H       1  UNL1        0.1496
     44 C          21.7263   74.0251    6.2211 C.3     1  UNL1        0.1693
     45 O          20.3027   73.9303    6.1421 O.3     1  UNL1       -0.3794
     46 H          19.9862   73.7234    7.0319 H       1  UNL1        0.2105
@<TRIPOS>BOND
     1    29    30    1
     2    29    28    1
     3    29    36    1
     4    30    31    1
     5    30    41    1
     6    31    32    1
     7    31    34    1
     8    32    33    1
     9    32    35    1
    10    33    44    1
    11    33    36    1
    12    44    45    1
    13    39    40    1
    14    39    41   am
    15    39    42    2
    16    41    43    1
    17    28    25    1
    18    34    37    1
    19    35    38    1
    20    45    46    1
    21    15    16   ar
    22    15    20   ar
    23    15     6    1
    24    16    17   ar
    25    16    21    2
    26    17    18   ar
    27    17    23    1
    28    18    19   ar
    29    18    22    2
    30    19    20   ar
    31     6     7    1
    32     6    11    1
    33     7     8    1
    34     7     9    1
    35     8    13    1
    36     9    10    1
    37     9    12    1
    38    10    11    1
    39    10     5    1
    40    12    14    1
    41     5     4    1
    42     4     1    1
    43     1     2    2
    44     1     3    1
    45     1    24    1
    46    24    25    1
    47    25    26    2
    48    25    27    1
@<TRIPOS>MOLECULE
UD1
 46 48 0 0 0
SMALL
GASTEIGER

@<TRIPOS>ATOM
      1 P          22.6843   73.3646   -3.9808 P.3     1  UNL1        0.2189
      2 O          23.8150   72.4109   -3.9520 O.2     1  UNL1       -0.5170
      3 O          22.8244   74.3244   -5.2660 O.3     1  UNL1       -0.4371
      4 O          22.7018   74.2575   -2.6410 O.3     1  UNL1       -0.3112
      5 C          21.9371   73.5511   -1.6629 C.3     1  UNL1        0.1811
      6 C          23.1205   72.2555    1.4753 C.3     1  UNL1        0.2383
      7 C          22.1463   71.1713    0.9503 C.3     1  UNL1        0.1895
      8 O          22.5437   69.8716    1.3887 O.3     1  UNL1       -0.3779
      9 C          22.3033   71.3090   -0.5864 C.3     1  UNL1        0.1713
     10 C          22.8745   72.7272   -0.7788 C.3     1  UNL1        0.1764
     11 O          22.9747   73.3301    0.5226 O.3     1  UNL1       -0.3308
     12 O          23.2111   70.3250   -1.0868 O.3     1  UNL1       -0.3794
     13 H          21.8992   69.2458    1.0302 H       1  UNL1        0.2106
     14 H          22.8269   69.4617   -0.8836 H       1  UNL1        0.2105
     15 N          22.7325   72.6975    2.8153 N.ar    1  UNL1       -0.2551
     16 C          21.4967   72.4313    3.2729 C.ar    1  UNL1        0.3323
     17 N          21.1139   72.8224    4.5028 N.ar    1  UNL1       -0.2743
     18 C          21.9674   73.4999    5.2968 C.ar    1  UNL1        0.2626
     19 C          23.2694   73.7920    4.8253 C.ar    1  UNL1        0.0795
     20 C          23.6290   73.3834    3.5896 C.ar    1  UNL1        0.0869
     21 O          20.7156   71.8210    2.5686 O.2     1  UNL1       -0.2464
     22 O          21.6207   73.8581    6.4071 O.2     1  UNL1       -0.2670
     23 H          20.2202   72.6177    4.8185 H       1  UNL1        0.1734
     24 O          21.2985   72.5515   -4.0656 O.3     1  UNL1       -0.2703
     25 P          20.1840   73.5859   -4.5923 P.3     1  UNL1        0.2208
     26 O          20.7312   74.9600   -4.5579 O.2     1  UNL1       -0.5170
     27 O          18.8840   73.5030   -3.6461 O.3     1  UNL1       -0.4371
     28 O          19.7720   73.2100   -6.1021 O.3     1  UNL1       -0.2865
     29 C          20.1247   71.8396   -6.2990 C.3     1  UNL1        0.2611
     30 C          20.3467   71.5846   -7.7909 C.3     1  UNL1        0.1582
     31 C          19.0628   71.9281   -8.5546 C.3     1  UNL1        0.1625
     32 C          17.8978   71.1552   -7.9273 C.3     1  UNL1        0.1686
     33 C          17.8587   71.4451   -6.4254 C.3     1  UNL1        0.1760
     34 O          19.2068   71.5540   -9.9260 O.3     1  UNL1       -0.3801
     35 O          16.6699   71.5713   -8.5279 O.3     1  UNL1       -0.3794
     36 O          19.0728   71.0057   -5.8178 O.3     1  UNL1       -0.3263
     37 H          18.3788   71.7875  -10.3677 H       1  UNL1        0.2105
     38 H          15.9645   71.0618   -8.1043 H       1  UNL1        0.2105
     39 C          21.1859   73.6436   -8.7862 C.2     1  UNL1        0.2231
     40 C          22.3161   74.5083   -9.2834 C.3     1  UNL1        0.0946
     41 N          21.4444   72.4252   -8.2735 N.am    1  UNL1       -0.2994
     42 O          20.0432   74.0445   -8.8484 O.2     1  UNL1       -0.2751
     43 H          22.3587   72.1040   -8.2239 H       1  UNL1        0.1496
     44 C          16.6784   70.7033   -5.7947 C.3     1  UNL1        0.1693
     45 O          16.2543   69.6534   -6.6664 O.3     1  UNL1       -0.3794
     46 H          15.5111   69.2127   -6.2329 H       1  UNL1        0.2105
@<TRIPOS>BOND
     1    29    30    1
     2    29    28    1
     3    29    36    1
     4    30    31    1
     5    30    41    1
     6    31    32    1
     7    31    34    1
     8    32    33    1
     9    32    35    1
    10    33    44    1
    11    33    36    1
    12    44    45    1
    13    39    40    1
    14    39    41   am
    15    39    42    2
    16    41    43    1
    17    28    25    1
    18    34    37    1
    19    35    38    1
    20    45    46    1
    21    15    16   ar
    22    15    20   ar
    23    15     6    1
    24    16    17   ar
    25    16    21    2
    26    17    18   ar
    27    17    23    1
    28    18    19   ar
    29    18    22    2
    30    19    20   ar
    31     6     7    1
    32     6    11    1
    33     7     8    1
    34     7     9    1
    35     8    13    1
    36     9    10    1
    37     9    12    1
    38    10    11    1
    39    10     5    1
    40    12    14    1
    41     5     4    1
    42     4     1    1
    43     1     2    2
    44     1     3    1
    45     1    24    1
    46    24    25    1
    47    25    26    2
    48    25    27    1
@<TRIPOS>MOLECULE
UD1
 46 48 0 0 0
SMALL
GASTEIGER

@<TRIPOS>ATOM
      1 P          21.5968   70.7706   -1.2527 P.3     1  UNL1        0.2189
      2 O          21.4872   69.4903   -0.5196 O.2     1  UNL1       -0.5170
      3 O          22.4423   70.5446   -2.6043 O.3     1  UNL1       -0.4371
      4 O          22.3453   71.8556   -0.3278 O.3     1  UNL1       -0.3112
      5 C          21.3398   72.4856    0.4674 C.3     1  UNL1        0.1811
      6 C          23.1600   73.5707    3.3720 C.3     1  UNL1        0.2383
      7 C          21.8207   74.3465    3.4409 C.3     1  UNL1        0.1895
      8 O          21.4467   74.6013    4.7953 O.3     1  UNL1       -0.3779
      9 C          20.8346   73.3540    2.7719 C.3     1  UNL1        0.1713
     10 C          21.7428   72.4264    1.9416 C.3     1  UNL1        0.1764
     11 O          23.0932   72.8944    2.0986 O.3     1  UNL1       -0.3308
     12 O          20.1227   72.6110    3.7637 O.3     1  UNL1       -0.3794
     13 H          20.6095   75.0849    4.7685 H       1  UNL1        0.2106
     14 H          19.6219   73.2514    4.2864 H       1  UNL1        0.2105
     15 N          24.2964   74.4919    3.4082 N.ar    1  UNL1       -0.2551
     16 C          24.9082   74.7496    4.5772 C.ar    1  UNL1        0.3323
     17 N          25.9583   75.5896    4.6396 N.ar    1  UNL1       -0.2743
     18 C          26.4098   76.1969    3.5237 C.ar    1  UNL1        0.2626
     19 C          25.7712   75.9393    2.2873 C.ar    1  UNL1        0.0795
     20 C          24.7234   75.0882    2.2524 C.ar    1  UNL1        0.0869
     21 O          24.5127   74.2094    5.5923 O.2     1  UNL1       -0.2464
     22 O          27.3561   76.9603    3.5797 O.2     1  UNL1       -0.2670
     23 H          26.3907   75.7602    5.4906 H       1  UNL1        0.1734
     24 O          20.1249   71.3051   -1.6225 O.3     1  UNL1       -0.2703
     25 P          19.5232   70.2904   -2.7169 P.3     1  UNL1        0.2208
     26 O          18.4857   69.4443   -2.0871 O.2     1  UNL1       -0.5170
     27 O          20.7027   69.3556   -3.2887 O.3     1  UNL1       -0.4371
     28 O          18.8707   71.1286   -3.9261 O.3     1  UNL1       -0.2865
     29 C          19.6710   70.8785   -5.0829 C.3     1  UNL1        0.2611
     30 C          20.2787   72.1949   -5.5708 C.3     1  UNL1        0.1582
     31 C          19.1488   73.1781   -5.8967 C.3     1  UNL1        0.1625
     32 C          18.1802   72.5050   -6.8749 C.3     1  UNL1        0.1686
     33 C          17.7284   71.1664   -6.2870 C.3     1  UNL1        0.1760
     34 O          19.6959   74.3555   -6.4933 O.3     1  UNL1       -0.3801
     35 O          17.0440   73.3472   -7.0780 O.3     1  UNL1       -0.3794
     36 O          18.8578   70.3126   -6.1084 O.3     1  UNL1       -0.3263
     37 H          18.9524   74.9448   -6.6811 H       1  UNL1        0.2105
     38 H          16.4612   72.8860   -7.6979 H       1  UNL1        0.2105
     39 C          22.4079   73.0919   -4.7989 C.2     1  UNL1        0.2231
     40 C          23.2865   73.6715   -3.7199 C.3     1  UNL1        0.0946
     41 N          21.1324   72.7584   -4.5230 N.am    1  UNL1       -0.2994
     42 O          22.8495   72.9250   -5.9158 O.2     1  UNL1       -0.2751
     43 H          20.7789   72.8917   -3.6293 H       1  UNL1        0.1496
     44 C          16.7352   70.5008   -7.2418 C.3     1  UNL1        0.1693
     45 O          17.0258   70.8964   -8.5839 O.3     1  UNL1       -0.3794
     46 H          16.3787   70.4564   -9.1516 H       1  UNL1        0.2105
@<TRIPOS>BOND
     1    29    30    1
     2    29    28    1
     3    29    36    1
     4    30    31    1
     5    30    41    1
     6    31    32    1
     7    31    34    1
     8    32    33    1
     9    32    35    1
    10    33    44    1
    11    33    36    1
    12    44    45    1
    13    39    40    1
    14    39    41   am
    15    39    42    2
    16    41    43    1
    17    28    25    1
    18    34    37    1
    19    35    38    1
    20    45    46    1
    21    15    16   ar
    22    15    20   ar
    23    15     6    1
    24    16    17   ar
    25    16    21    2
    26    17    18   ar
    27    17    23    1
    28    18    19   ar
    29    18    22    2
    30    19    20   ar
    31     6     7    1
    32     6    11    1
    33     7     8    1
    34     7     9    1
    35     8    13    1
    36     9    10    1
    37     9    12    1
    38    10    11    1
    39    10     5    1
    40    12    14    1
    41     5     4    1
    42     4     1    1
    43     1     2    2
    44     1     3    1
    45     1    24    1
    46    24    25    1
    47    25    26    2
    48    25    27    1
@<TRIPOS>MOLECULE
UD1
 46 48 0 0 0
SMALL
GASTEIGER

@<TRIPOS>ATOM
      1 P          22.0708   70.3499    0.0905 P.3     1  UNL1        0.2189
      2 O          22.7642   69.1112    0.5070 O.2     1  UNL1       -0.5170
      3 O          23.1243   71.3446   -0.6118 O.3     1  UNL1       -0.4371
      4 O          21.4350   71.0690    1.3833 O.3     1  UNL1       -0.3112
      5 C          22.4043   72.0066    1.8540 C.3     1  UNL1        0.1811
      6 C          22.5961   74.1757    4.7151 C.3     1  UNL1        0.2383
      7 C          21.4077   74.7276    3.8884 C.3     1  UNL1        0.1895
      8 O          20.4253   75.3204    4.7386 O.3     1  UNL1       -0.3779
      9 C          20.8552   73.4442    3.2155 C.3     1  UNL1        0.1713
     10 C          22.0360   72.4555    3.2690 C.3     1  UNL1        0.1764
     11 O          23.1466   73.1447    3.8679 O.3     1  UNL1       -0.3308
     12 O          19.7366   72.9377    3.9467 O.3     1  UNL1       -0.3794
     13 H          19.7164   75.6430    4.1651 H       1  UNL1        0.2106
     14 H          19.0562   73.6238    3.9270 H       1  UNL1        0.2105
     15 N          23.5870   75.2234    4.9634 N.ar    1  UNL1       -0.2551
     16 C          24.5339   75.4766    4.0432 C.ar    1  UNL1        0.3323
     17 N          25.4556   76.4371    4.2433 N.ar    1  UNL1       -0.2743
     18 C          25.4487   77.1588    5.3822 C.ar    1  UNL1        0.2626
     19 C          24.4612   76.8986    6.3620 C.ar    1  UNL1        0.0795
     20 C          23.5454   75.9331    6.1332 C.ar    1  UNL1        0.0869
     21 O          24.5531   74.8343    3.0110 O.2     1  UNL1       -0.2464
     22 O          26.2846   78.0242    5.5662 O.2     1  UNL1       -0.2670
     23 H          26.1284   76.6095    3.5667 H       1  UNL1        0.1734
     24 O          20.8996   69.9851   -0.9507 O.3     1  UNL1       -0.2703
     25 P          21.0669   70.9785   -2.2054 P.3     1  UNL1        0.2208
     26 O          22.1936   70.5224   -3.0488 O.2     1  UNL1       -0.5170
     27 O          21.3641   72.4692   -1.6746 O.3     1  UNL1       -0.4371
     28 O          19.7123   70.9801   -3.0747 O.3     1  UNL1       -0.2865
     29 C          20.0874   70.7128   -4.4271 C.3     1  UNL1        0.2611
     30 C          19.9389   71.9909   -5.2544 C.3     1  UNL1        0.1582
     31 C          18.4845   72.4695   -5.1807 C.3     1  UNL1        0.1625
     32 C          17.5668   71.3144   -5.5949 C.3     1  UNL1        0.1686
     33 C          17.8923   70.0880   -4.7396 C.3     1  UNL1        0.1760
     34 O          18.2986   73.5746   -6.0671 O.3     1  UNL1       -0.3801
     35 O          16.2034   71.6913   -5.3932 O.3     1  UNL1       -0.3794
     36 O          19.2456   69.6923   -4.9595 O.3     1  UNL1       -0.3263
     37 H          17.3728   73.8430   -5.9886 H       1  UNL1        0.2105
     38 H          15.6615   70.9370   -5.6651 H       1  UNL1        0.2105
     39 C          22.0230   73.2516   -5.2898 C.2     1  UNL1        0.2231
     40 C          22.9341   74.3180   -4.7375 C.3     1  UNL1        0.0946
     41 N          20.8241   73.0270   -4.7185 N.am    1  UNL1       -0.2994
     42 O          22.3695   72.5951   -6.2485 O.2     1  UNL1       -0.2751
     43 H          20.5466   73.5521   -3.9511 H       1  UNL1        0.1496
     44 C          16.9588   68.9380   -5.1232 C.3     1  UNL1        0.1693
     45 O          16.3993   69.1884   -6.4141 O.3     1  UNL1       -0.3794
     46 H          15.8189   68.4423   -6.6169 H       1  UNL1        0.2105
@<TRIPOS>BOND
     1    29    30    1
     2    29    28    1
     3    29    36    1
     4    30    31    1
     5    30    41    1
     6    31    32    1
     7    31    34    1
     8    32    33    1
     9    32    35    1
    10    33    44    1
    11    33    36    1
    12    44    45    1
    13    39    40    1
    14    39    41   am
    15    39    42    2
    16    41    43    1
    17    28    25    1
    18    34    37    1
    19    35    38    1
    20    45    46    1
    21    15    16   ar
    22    15    20   ar
    23    15     6    1
    24    16    17   ar
    25    16    21    2
    26    17    18   ar
    27    17    23    1
    28    18    19   ar
    29    18    22    2
    30    19    20   ar
    31     6     7    1
    32     6    11    1
    33     7     8    1
    34     7     9    1
    35     8    13    1
    36     9    10    1
    37     9    12    1
    38    10    11    1
    39    10     5    1
    40    12    14    1
    41     5     4    1
    42     4     1    1
    43     1     2    2
    44     1     3    1
    45     1    24    1
    46    24    25    1
    47    25    26    2
    48    25    27    1
@<TRIPOS>MOLECULE
UD1
 46 48 0 0 0
SMALL
GASTEIGER

@<TRIPOS>ATOM
      1 P          21.6570   71.3575   -0.7455 P.3     1  UNL1        0.2189
      2 O          22.8566   71.8948   -0.0666 O.2     1  UNL1       -0.5170
      3 O          21.3055   69.9055   -0.1448 O.3     1  UNL1       -0.4371
      4 O          21.9471   71.2282   -2.3241 O.3     1  UNL1       -0.3112
      5 C          21.1269   70.1644   -2.8099 C.3     1  UNL1        0.1811
      6 C          18.5504   70.8463   -5.2231 C.3     1  UNL1        0.2383
      7 C          18.1334   69.4999   -4.5801 C.3     1  UNL1        0.1895
      8 O          16.7125   69.3587   -4.5655 O.3     1  UNL1       -0.3779
      9 C          18.6903   69.6407   -3.1395 C.3     1  UNL1        0.1713
     10 C          19.7780   70.7252   -3.2630 C.3     1  UNL1        0.1764
     11 O          19.8478   71.1081   -4.6471 O.3     1  UNL1       -0.3308
     12 O          17.6584   70.0578   -2.2428 O.3     1  UNL1       -0.3794
     13 H          16.5200   68.5043   -4.1552 H       1  UNL1        0.2106
     14 H          16.9820   69.3676   -2.2550 H       1  UNL1        0.2105
     15 N          18.6475   70.7192   -6.6777 N.ar    1  UNL1       -0.2551
     16 C          17.5283   70.7150   -7.4224 C.ar    1  UNL1        0.3323
     17 N          17.5878   70.6034   -8.7626 N.ar    1  UNL1       -0.2743
     18 C          18.7794   70.4840   -9.3822 C.ar    1  UNL1        0.2626
     19 C          19.9653   70.4810   -8.6098 C.ar    1  UNL1        0.0795
     20 C          19.8769   70.5998   -7.2677 C.ar    1  UNL1        0.0869
     21 O          16.4461   70.8219   -6.8782 O.2     1  UNL1       -0.2464
     22 O          18.8342   70.3783  -10.5935 O.2     1  UNL1       -0.2670
     23 H          16.7707   70.6069   -9.2845 H       1  UNL1        0.1734
     24 O          20.4151   72.3526   -0.5081 O.3     1  UNL1       -0.2703
     25 P          20.9726   73.8484   -0.7106 P.3     1  UNL1        0.2208
     26 O          19.8362   74.7935   -0.7764 O.2     1  UNL1       -0.5170
     27 O          21.8150   73.9270   -2.0804 O.3     1  UNL1       -0.4371
     28 O          21.9248   74.2396    0.5266 O.3     1  UNL1       -0.2865
     29 C          21.0772   74.7518    1.5563 C.3     1  UNL1        0.2611
     30 C          21.7111   76.0095    2.1533 C.3     1  UNL1        0.1582
     31 C          23.0926   75.6558    2.7156 C.3     1  UNL1        0.1625
     32 C          22.9404   74.4791    3.6853 C.3     1  UNL1        0.1686
     33 C          22.2163   73.3356    2.9716 C.3     1  UNL1        0.1760
     34 O          23.6311   76.7841    3.4073 O.3     1  UNL1       -0.3801
     35 O          24.2321   74.0385    4.1085 O.3     1  UNL1       -0.3794
     36 O          20.9151   73.7640    2.5718 O.3     1  UNL1       -0.3263
     37 H          24.4981   76.5180    3.7434 H       1  UNL1        0.2105
     38 H          24.0901   73.2982    4.7154 H       1  UNL1        0.2105
     39 C          20.8980   77.9664    0.9519 C.2     1  UNL1        0.2231
     40 C          21.0431   79.0154   -0.1210 C.3     1  UNL1        0.0946
     41 N          21.8519   77.0290    1.1115 N.am    1  UNL1       -0.2994
     42 O          19.9219   77.9659    1.6712 O.2     1  UNL1       -0.2751
     43 H          22.6330   77.0290    0.5358 H       1  UNL1        0.1496
     44 C          22.0881   72.1431    3.9217 C.3     1  UNL1        0.1693
     45 O          21.9425   72.6153    5.2625 O.3     1  UNL1       -0.3794
     46 H          21.8654   71.8345    5.8273 H       1  UNL1        0.2105
@<TRIPOS>BOND
     1    29    30    1
     2    29    28    1
     3    29    36    1
     4    30    31    1
     5    30    41    1
     6    31    32    1
     7    31    34    1
     8    32    33    1
     9    32    35    1
    10    33    44    1
    11    33    36    1
    12    44    45    1
    13    39    40    1
    14    39    41   am
    15    39    42    2
    16    41    43    1
    17    28    25    1
    18    34    37    1
    19    35    38    1
    20    45    46    1
    21    15    16   ar
    22    15    20   ar
    23    15     6    1
    24    16    17   ar
    25    16    21    2
    26    17    18   ar
    27    17    23    1
    28    18    19   ar
    29    18    22    2
    30    19    20   ar
    31     6     7    1
    32     6    11    1
    33     7     8    1
    34     7     9    1
    35     8    13    1
    36     9    10    1
    37     9    12    1
    38    10    11    1
    39    10     5    1
    40    12    14    1
    41     5     4    1
    42     4     1    1
    43     1     2    2
    44     1     3    1
    45     1    24    1
    46    24    25    1
    47    25    26    2
    48    25    27    1
@<TRIPOS>MOLECULE
UD1
 46 48 0 0 0
SMALL
GASTEIGER

@<TRIPOS>ATOM
      1 P          21.7061   71.0432   -0.6704 P.3     1  UNL1        0.2189
      2 O          21.2740   69.8249    0.0492 O.2     1  UNL1       -0.5170
      3 O          23.3140   71.0780   -0.7494 O.3     1  UNL1       -0.4371
      4 O          21.1802   72.3457    0.1168 O.3     1  UNL1       -0.3112
      5 C          22.3367   73.0442    0.5804 C.3     1  UNL1        0.1811
      6 C          23.0729   74.1056    3.9358 C.3     1  UNL1        0.2383
      7 C          21.5421   74.2978    3.7950 C.3     1  UNL1        0.1895
      8 O          20.8860   74.1120    5.0497 O.3     1  UNL1       -0.3779
      9 C          21.1626   73.1706    2.7998 C.3     1  UNL1        0.1713
     10 C          22.4881   72.8373    2.0883 C.3     1  UNL1        0.1764
     11 O          23.4897   73.7296    2.6060 O.3     1  UNL1       -0.3308
     12 O          20.6638   72.0301    3.5021 O.3     1  UNL1       -0.3794
     13 H          19.9408   74.2453    4.8940 H       1  UNL1        0.2106
     14 H          19.8703   72.3173    3.9733 H       1  UNL1        0.2105
     15 N          23.7177   75.3538    4.3452 N.ar    1  UNL1       -0.2551
     16 C          24.9086   75.3156    4.9678 C.ar    1  UNL1        0.3323
     17 N          25.5265   76.4482    5.3520 N.ar    1  UNL1       -0.2743
     18 C          24.9518   77.6465    5.1248 C.ar    1  UNL1        0.2626
     19 C          23.6954   77.7009    4.4757 C.ar    1  UNL1        0.0795
     20 C          23.1002   76.5498    4.0961 C.ar    1  UNL1        0.0869
     21 O          25.4397   74.2425    5.1797 O.2     1  UNL1       -0.2464
     22 O          25.5073   78.6709    5.4761 O.2     1  UNL1       -0.2670
     23 H          26.3875   76.4022    5.7957 H       1  UNL1        0.1734
     24 O          21.0949   71.0326   -2.1587 O.3     1  UNL1       -0.2703
     25 P          22.2339   71.6177   -3.1332 P.3     1  UNL1        0.2208
     26 O          23.3329   70.6345   -3.2532 O.2     1  UNL1       -0.5170
     27 O          22.8088   72.9924   -2.5233 O.3     1  UNL1       -0.4371
     28 O          21.6048   71.8993   -4.5877 O.3     1  UNL1       -0.2865
     29 C          20.2341   72.2482   -4.3859 C.3     1  UNL1        0.2611
     30 C          19.3477   71.3053   -5.2015 C.3     1  UNL1        0.1582
     31 C          19.7230   71.4208   -6.6832 C.3     1  UNL1        0.1625
     32 C          19.6555   72.8960   -7.0923 C.3     1  UNL1        0.1686
     33 C          20.5213   73.7186   -6.1358 C.3     1  UNL1        0.1760
     34 O          18.8052   70.6596   -7.4704 O.3     1  UNL1       -0.3801
     35 O          20.1423   73.0444   -8.4274 O.3     1  UNL1       -0.3794
     36 O          20.0211   73.5944   -4.8050 O.3     1  UNL1       -0.3263
     37 H          19.0781   70.7600   -8.3927 H       1  UNL1        0.2105
     38 H          20.0830   73.9858   -8.6437 H       1  UNL1        0.2105
     39 C          18.6316   69.3301   -3.9685 C.2     1  UNL1        0.2231
     40 C          18.8427   67.9119   -3.5032 C.3     1  UNL1        0.0946
     41 N          19.5521   69.9274   -4.7496 N.am    1  UNL1       -0.2994
     42 O          17.6331   69.9339   -3.6391 O.2     1  UNL1       -0.2751
     43 H          20.3514   69.4445   -5.0132 H       1  UNL1        0.1496
     44 C          20.4866   75.1895   -6.5555 C.3     1  UNL1        0.1693
     45 O          21.4555   75.4156   -7.5813 O.3     1  UNL1       -0.3794
     46 H          21.4011   76.3518   -7.8162 H       1  UNL1        0.2105
@<TRIPOS>BOND
     1    29    30    1
     2    29    28    1
     3    29    36    1
     4    30    31    1
     5    30    41    1
     6    31    32    1
     7    31    34    1
     8    32    33    1
     9    32    35    1
    10    33    44    1
    11    33    36    1
    12    44    45    1
    13    39    40    1
    14    39    41   am
    15    39    42    2
    16    41    43    1
    17    28    25    1
    18    34    37    1
    19    35    38    1
    20    45    46    1
    21    15    16   ar
    22    15    20   ar
    23    15     6    1
    24    16    17   ar
    25    16    21    2
    26    17    18   ar
    27    17    23    1
    28    18    19   ar
    29    18    22    2
    30    19    20   ar
    31     6     7    1
    32     6    11    1
    33     7     8    1
    34     7     9    1
    35     8    13    1
    36     9    10    1
    37     9    12    1
    38    10    11    1
    39    10     5    1
    40    12    14    1
    41     5     4    1
    42     4     1    1
    43     1     2    2
    44     1     3    1
    45     1    24    1
    46    24    25    1
    47    25    26    2
    48    25    27    1
@<TRIPOS>MOLECULE
UD1
 46 48 0 0 0
SMALL
GASTEIGER

@<TRIPOS>ATOM
      1 P          21.9632   74.5048   -6.2445 P.3     1  UNL1        0.2189
      2 O          21.0253   75.4930   -6.8213 O.2     1  UNL1       -0.5170
      3 O          23.4566   75.1062   -6.2655 O.3     1  UNL1       -0.4371
      4 O          21.9185   73.1513   -7.1157 O.3     1  UNL1       -0.3112
      5 C          21.2876   73.4775   -8.3550 C.3     1  UNL1        0.1811
      6 C          18.6871   71.2456   -7.2672 C.3     1  UNL1        0.2383
      7 C          18.0315   72.6490   -7.2382 C.3     1  UNL1        0.1895
      8 O          16.6322   72.5651   -7.5106 O.3     1  UNL1       -0.3779
      9 C          18.7757   73.3799   -8.3859 C.3     1  UNL1        0.1713
     10 C          20.0744   72.5702   -8.5652 C.3     1  UNL1        0.1764
     11 O          20.0688   71.5249   -7.5780 O.3     1  UNL1       -0.3308
     12 O          17.9950   73.3571   -9.5828 O.3     1  UNL1       -0.3794
     13 H          16.2857   73.4675   -7.4773 H       1  UNL1        0.2106
     14 H          17.1727   73.8266   -9.3888 H       1  UNL1        0.2105
     15 N          18.5734   70.5921   -5.9628 N.ar    1  UNL1       -0.2551
     16 C          17.4522   69.9194   -5.6501 C.ar    1  UNL1        0.3323
     17 N          17.3216   69.3054   -4.4592 N.ar    1  UNL1       -0.2743
     18 C          18.3171   69.3641   -3.5517 C.ar    1  UNL1        0.2626
     19 C          19.5005   70.0740   -3.8656 C.ar    1  UNL1        0.0795
     20 C          19.6072   70.6761   -5.0695 C.ar    1  UNL1        0.0869
     21 O          16.5456   69.8574   -6.4581 O.2     1  UNL1       -0.2464
     22 O          18.1982   68.8134   -2.4728 O.2     1  UNL1       -0.2670
     23 H          16.5078   68.8206   -4.2523 H       1  UNL1        0.1734
     24 O          21.5354   74.1807   -4.7276 O.3     1  UNL1       -0.2703
     25 P          22.8964   73.9617   -3.8975 P.3     1  UNL1        0.2208
     26 O          23.7238   75.1857   -3.9754 O.2     1  UNL1       -0.5170
     27 O          23.7129   72.7223   -4.5214 O.3     1  UNL1       -0.4371
     28 O          22.5435   73.6497   -2.3585 O.3     1  UNL1       -0.2865
     29 C          21.3563   72.8548   -2.3584 C.3     1  UNL1        0.2611
     30 C          20.2904   73.5391   -1.5007 C.3     1  UNL1        0.1582
     31 C          20.8276   73.7095   -0.0752 C.3     1  UNL1        0.1625
     32 C          21.2994   72.3447    0.4372 C.3     1  UNL1        0.1686
     33 C          22.2917   71.7518   -0.5654 C.3     1  UNL1        0.1760
     34 O          19.7905   74.2099    0.7706 O.3     1  UNL1       -0.3801
     35 O          21.9376   72.5049    1.7055 O.3     1  UNL1       -0.3794
     36 O          21.6496   71.5649   -1.8261 O.3     1  UNL1       -0.3263
     37 H          20.1712   74.3019    1.6549 H       1  UNL1        0.2105
     38 H          22.2191   71.6239    1.9903 H       1  UNL1        0.2105
     39 C          18.8078   75.0474   -2.7095 C.2     1  UNL1        0.2231
     40 C          18.4841   76.3995   -3.2922 C.3     1  UNL1        0.0946
     41 N          19.9752   74.8525   -2.0665 N.am    1  UNL1       -0.2994
     42 O          18.0175   74.1346   -2.8202 O.2     1  UNL1       -0.2751
     43 H          20.6079   75.5828   -1.9780 H       1  UNL1        0.1496
     44 C          22.7939   70.4027   -0.0470 C.3     1  UNL1        0.1693
     45 O          21.7311   69.7249    0.6260 O.3     1  UNL1       -0.3794
     46 H          22.0888   68.8821    0.9364 H       1  UNL1        0.2105
@<TRIPOS>BOND
     1    29    30    1
     2    29    28    1
     3    29    36    1
     4    30    31    1
     5    30    41    1
     6    31    32    1
     7    31    34    1
     8    32    33    1
     9    32    35    1
    10    33    44    1
    11    33    36    1
    12    44    45    1
    13    39    40    1
    14    39    41   am
    15    39    42    2
    16    41    43    1
    17    28    25    1
    18    34    37    1
    19    35    38    1
    20    45    46    1
    21    15    16   ar
    22    15    20   ar
    23    15     6    1
    24    16    17   ar
    25    16    21    2
    26    17    18   ar
    27    17    23    1
    28    18    19   ar
    29    18    22    2
    30    19    20   ar
    31     6     7    1
    32     6    11    1
    33     7     8    1
    34     7     9    1
    35     8    13    1
    36     9    10    1
    37     9    12    1
    38    10    11    1
    39    10     5    1
    40    12    14    1
    41     5     4    1
    42     4     1    1
    43     1     2    2
    44     1     3    1
    45     1    24    1
    46    24    25    1
    47    25    26    2
    48    25    27    1
@<TRIPOS>MOLECULE
UD1
 46 48 0 0 0
SMALL
GASTEIGER

@<TRIPOS>ATOM
      1 P          22.9507   72.3209   -3.3508 P.3     1  UNL1        0.2189
      2 O          23.3503   70.9254   -3.0651 O.2     1  UNL1       -0.5170
      3 O          24.2110   73.1296   -3.9427 O.3     1  UNL1       -0.4371
      4 O          22.4532   73.0252   -1.9910 O.3     1  UNL1       -0.3112
      5 C          22.7486   72.1216   -0.9248 C.3     1  UNL1        0.1811
      6 C          22.5853   73.8456    2.2261 C.3     1  UNL1        0.2383
      7 C          22.0822   74.8819    1.1901 C.3     1  UNL1        0.1895
      8 O          21.1281   75.7684    1.7759 O.3     1  UNL1       -0.3779
      9 C          21.4141   73.9769    0.1225 C.3     1  UNL1        0.1713
     10 C          22.0518   72.5931    0.3525 C.3     1  UNL1        0.1764
     11 O          23.0146   72.7344    1.4109 O.3     1  UNL1       -0.3308
     12 O          20.0003   73.9234    0.3257 O.3     1  UNL1       -0.3794
     13 H          20.8564   76.3854    1.0824 H       1  UNL1        0.2106
     14 H          19.6697   74.8263    0.2277 H       1  UNL1        0.2105
     15 N          23.7068   74.3840    2.9967 N.ar    1  UNL1       -0.2551
     16 C          23.8139   74.0980    4.3059 C.ar    1  UNL1        0.3323
     17 N          24.8371   74.5763    5.0385 N.ar    1  UNL1       -0.2743
     18 C          25.7719   75.3628    4.4680 C.ar    1  UNL1        0.2626
     19 C          25.6680   75.6767    3.0919 C.ar    1  UNL1        0.0795
     20 C          24.6344   75.1792    2.3795 C.ar    1  UNL1        0.0869
     21 O          22.9788   73.3899    4.8348 O.2     1  UNL1       -0.2464
     22 O          26.6948   75.7997    5.1304 O.2     1  UNL1       -0.2670
     23 H          24.9013   74.3559    5.9806 H       1  UNL1        0.1734
     24 O          21.7545   72.3271   -4.4269 O.3     1  UNL1       -0.2703
     25 P          20.5814   71.4058   -3.8232 P.3     1  UNL1        0.2208
     26 O          20.0191   72.0513   -2.6165 O.2     1  UNL1       -0.5170
     27 O          21.1792   69.9635   -3.4301 O.3     1  UNL1       -0.4371
     28 O          19.4212   71.2225   -4.9236 O.3     1  UNL1       -0.2865
     29 C          19.2722   72.4814   -5.5824 C.3     1  UNL1        0.2611
     30 C          17.7966   72.8847   -5.5732 C.3     1  UNL1        0.1582
     31 C          16.9766   71.8018   -6.2834 C.3     1  UNL1        0.1625
     32 C          17.5786   71.5630   -7.6722 C.3     1  UNL1        0.1686
     33 C          19.0702   71.2564   -7.5228 C.3     1  UNL1        0.1760
     34 O          15.6214   72.2355   -6.4134 O.3     1  UNL1       -0.3801
     35 O          16.9218   70.4569   -8.2941 O.3     1  UNL1       -0.3794
     36 O          19.7341   72.3703   -6.9269 O.3     1  UNL1       -0.3263
     37 H          15.1430   71.5259   -6.8640 H       1  UNL1        0.2105
     38 H          17.3311   70.3412   -9.1633 H       1  UNL1        0.2105
     39 C          16.7065   71.9961   -3.5841 C.2     1  UNL1        0.2231
     40 C          16.2309   72.1379   -2.1608 C.3     1  UNL1        0.0946
     41 N          17.3349   73.0218   -4.1903 N.am    1  UNL1       -0.2994
     42 O          16.5229   70.9586   -4.1842 O.2     1  UNL1       -0.2751
     43 H          17.4817   73.8522   -3.7104 H       1  UNL1        0.1496
     44 C          19.6743   70.9843   -8.9020 C.3     1  UNL1        0.1693
     45 O          20.2595   69.6806   -8.9174 O.3     1  UNL1       -0.3794
     46 H          20.6278   69.5497   -9.8016 H       1  UNL1        0.2105
@<TRIPOS>BOND
     1    29    30    1
     2    29    28    1
     3    29    36    1
     4    30    31    1
     5    30    41    1
     6    31    32    1
     7    31    34    1
     8    32    33    1
     9    32    35    1
    10    33    44    1
    11    33    36    1
    12    44    45    1
    13    39    40    1
    14    39    41   am
    15    39    42    2
    16    41    43    1
    17    28    25    1
    18    34    37    1
    19    35    38    1
    20    45    46    1
    21    15    16   ar
    22    15    20   ar
    23    15     6    1
    24    16    17   ar
    25    16    21    2
    26    17    18   ar
    27    17    23    1
    28    18    19   ar
    29    18    22    2
    30    19    20   ar
    31     6     7    1
    32     6    11    1
    33     7     8    1
    34     7     9    1
    35     8    13    1
    36     9    10    1
    37     9    12    1
    38    10    11    1
    39    10     5    1
    40    12    14    1
    41     5     4    1
    42     4     1    1
    43     1     2    2
    44     1     3    1
    45     1    24    1
    46    24    25    1
    47    25    26    2
    48    25    27    1
@<TRIPOS>MOLECULE
UD1
 46 48 0 0 0
SMALL
GASTEIGER

@<TRIPOS>ATOM
      1 P          22.1602   73.3779   -3.8453 P.3     1  UNL1        0.2189
      2 O          21.8727   74.1438   -2.6126 O.2     1  UNL1       -0.5170
      3 O          21.6777   74.2237   -5.1276 O.3     1  UNL1       -0.4371
      4 O          21.3710   71.9750   -3.8011 O.3     1  UNL1       -0.3112
      5 C          20.3956   72.0814   -2.7630 C.3     1  UNL1        0.1811
      6 C          18.0400   71.2863   -5.3603 C.3     1  UNL1        0.2383
      7 C          18.1067   70.0054   -4.4913 C.3     1  UNL1        0.1895
      8 O          16.8582   69.3123   -4.5059 O.3     1  UNL1       -0.3779
      9 C          18.4028   70.5826   -3.0827 C.3     1  UNL1        0.1713
     10 C          18.9940   71.9771   -3.3662 C.3     1  UNL1        0.1764
     11 O          19.0634   72.1321   -4.7939 O.3     1  UNL1       -0.3308
     12 O          17.1975   70.6884   -2.3218 O.3     1  UNL1       -0.3794
     13 H          16.9663   68.5287   -3.9494 H       1  UNL1        0.2106
     14 H          16.8458   69.7929   -2.2298 H       1  UNL1        0.2105
     15 N          18.3391   70.9807   -6.7598 N.ar    1  UNL1       -0.2551
     16 C          17.3347   70.7181   -7.6139 C.ar    1  UNL1        0.3323
     17 N          17.5801   70.4377   -8.9074 N.ar    1  UNL1       -0.2743
     18 C          18.8472   70.4066   -9.3674 C.ar    1  UNL1        0.2626
     19 C          19.9145   70.6753   -8.4777 C.ar    1  UNL1        0.0795
     20 C          19.6396   70.9589   -7.1865 C.ar    1  UNL1        0.0869
     21 O          16.1865   70.7423   -7.2141 O.2     1  UNL1       -0.2464
     22 O          19.0706   70.1485  -10.5357 O.2     1  UNL1       -0.2670
     23 H          16.8431   70.2554   -9.5106 H       1  UNL1        0.1734
     24 O          23.7418   73.1007   -3.9482 O.3     1  UNL1       -0.2703
     25 P          24.4810   74.4795   -3.5716 P.3     1  UNL1        0.2208
     26 O          24.3720   74.7155   -2.1151 O.2     1  UNL1       -0.5170
     27 O          23.7861   75.6959   -4.3651 O.3     1  UNL1       -0.4371
     28 O          26.0336   74.3880   -3.9856 O.3     1  UNL1       -0.2865
     29 C          26.5666   75.7101   -3.8903 C.3     1  UNL1        0.2611
     30 C          27.2814   76.0618   -5.1962 C.3     1  UNL1        0.1582
     31 C          28.4002   75.0440   -5.4450 C.3     1  UNL1        0.1625
     32 C          29.2981   74.9896   -4.2044 C.3     1  UNL1        0.1686
     33 C          28.4313   74.7156   -2.9736 C.3     1  UNL1        0.1760
     34 O          29.1697   75.4461   -6.5798 O.3     1  UNL1       -0.3801
     35 O          30.2596   73.9436   -4.3559 O.3     1  UNL1       -0.3794
     36 O          27.4877   75.7726   -2.8036 O.3     1  UNL1       -0.3263
     37 H          29.8599   74.7794   -6.6998 H       1  UNL1        0.2105
     38 H          30.8020   73.9440   -3.5545 H       1  UNL1        0.2105
     39 C          26.0579   77.1384   -7.0068 C.2     1  UNL1        0.2231
     40 C          25.0732   77.0956   -8.1474 C.3     1  UNL1        0.0946
     41 N          26.3253   76.0206   -6.3046 N.am    1  UNL1       -0.2994
     42 O          26.6093   78.1797   -6.7207 O.2     1  UNL1       -0.2751
     43 H          25.8840   75.1872   -6.5332 H       1  UNL1        0.1496
     44 C          29.3226   74.6270   -1.7331 C.3     1  UNL1        0.1693
     45 O          30.6763   74.4048   -2.1337 O.3     1  UNL1       -0.3794
     46 H          31.2029   74.3550   -1.3245 H       1  UNL1        0.2105
@<TRIPOS>BOND
     1    29    30    1
     2    29    28    1
     3    29    36    1
     4    30    31    1
     5    30    41    1
     6    31    32    1
     7    31    34    1
     8    32    33    1
     9    32    35    1
    10    33    44    1
    11    33    36    1
    12    44    45    1
    13    39    40    1
    14    39    41   am
    15    39    42    2
    16    41    43    1
    17    28    25    1
    18    34    37    1
    19    35    38    1
    20    45    46    1
    21    15    16   ar
    22    15    20   ar
    23    15     6    1
    24    16    17   ar
    25    16    21    2
    26    17    18   ar
    27    17    23    1
    28    18    19   ar
    29    18    22    2
    30    19    20   ar
    31     6     7    1
    32     6    11    1
    33     7     8    1
    34     7     9    1
    35     8    13    1
    36     9    10    1
    37     9    12    1
    38    10    11    1
    39    10     5    1
    40    12    14    1
    41     5     4    1
    42     4     1    1
    43     1     2    2
    44     1     3    1
    45     1    24    1
    46    24    25    1
    47    25    26    2
    48    25    27    1
@<TRIPOS>MOLECULE
UD1
 46 48 0 0 0
SMALL
GASTEIGER

@<TRIPOS>ATOM
      1 P          21.5456   71.3864   -0.3970 P.3     1  UNL1        0.2189
      2 O          23.0064   71.5640   -0.2441 O.2     1  UNL1       -0.5170
      3 O          21.2123   69.8231   -0.5902 O.3     1  UNL1       -0.4371
      4 O          21.0381   72.2058   -1.6869 O.3     1  UNL1       -0.3112
      5 C          20.7976   71.2469   -2.7180 C.3     1  UNL1        0.1811
      6 C          18.2799   71.0983   -5.2804 C.3     1  UNL1        0.2383
      7 C          18.1429   69.7537   -4.5232 C.3     1  UNL1        0.1895
      8 O          16.7929   69.2887   -4.5473 O.3     1  UNL1       -0.3779
      9 C          18.5675   70.1457   -3.0840 C.3     1  UNL1        0.1713
     10 C          19.3856   71.4377   -3.2739 C.3     1  UNL1        0.1764
     11 O          19.4477   71.7032   -4.6856 O.3     1  UNL1       -0.3308
     12 O          17.4170   70.3893   -2.2717 O.3     1  UNL1       -0.3794
     13 H          16.7759   68.4523   -4.0618 H       1  UNL1        0.2106
     14 H          16.9172   69.5627   -2.2405 H       1  UNL1        0.2105
     15 N          18.4887   70.8699   -6.7107 N.ar    1  UNL1       -0.2551
     16 C          17.4281   70.7407   -7.5266 C.ar    1  UNL1        0.3323
     17 N          17.5904   70.5340   -8.8469 N.ar    1  UNL1       -0.2743
     18 C          18.8283   70.4435   -9.3734 C.ar    1  UNL1        0.2626
     19 C          19.9537   70.5717   -8.5249 C.ar    1  UNL1        0.0795
     20 C          19.7622   70.7839   -7.2052 C.ar    1  UNL1        0.0869
     21 O          16.3052   70.8200   -7.0667 O.2     1  UNL1       -0.2464
     22 O          18.9762   70.2518  -10.5662 O.2     1  UNL1       -0.2670
     23 H          16.8140   70.4479   -9.4215 H       1  UNL1        0.1734
     24 O          20.7977   71.9372    0.9168 O.3     1  UNL1       -0.2703
     25 P          21.9389   72.2325    2.0121 P.3     1  UNL1        0.2208
     26 O          22.8104   73.3280    1.5331 O.2     1  UNL1       -0.5170
     27 O          22.8220   70.9056    2.2393 O.3     1  UNL1       -0.4371
     28 O          21.2517   72.6626    3.4025 O.3     1  UNL1       -0.2865
     29 C          21.3344   74.0866    3.4828 C.3     1  UNL1        0.2611
     30 C          22.0399   74.4791    4.7821 C.3     1  UNL1        0.1582
     31 C          21.2525   73.9150    5.9701 C.3     1  UNL1        0.1625
     32 C          19.7953   74.3747    5.8549 C.3     1  UNL1        0.1686
     33 C          19.2581   73.9872    4.4755 C.3     1  UNL1        0.1760
     34 O          21.8156   74.3989    7.1909 O.3     1  UNL1       -0.3801
     35 O          19.0128   73.7416    6.8691 O.3     1  UNL1       -0.3794
     36 O          20.0203   74.6397    3.4606 O.3     1  UNL1       -0.3263
     37 H          21.2913   74.0201    7.9098 H       1  UNL1        0.2105
     38 H          18.1047   74.0575    6.7598 H       1  UNL1        0.2105
     39 C          24.4595   74.7564    4.8345 C.2     1  UNL1        0.2231
     40 C          25.8566   74.1903    4.8399 C.3     1  UNL1        0.0946
     41 N          23.3972   73.9296    4.7878 N.am    1  UNL1       -0.2994
     42 O          24.2916   75.9567    4.8716 O.2     1  UNL1       -0.2751
     43 H          23.5314   72.9691    4.7580 H       1  UNL1        0.1496
     44 C          17.7929   74.4131    4.3621 C.3     1  UNL1        0.1693
     45 O          17.5827   75.6052    5.1216 O.3     1  UNL1       -0.3794
     46 H          16.6496   75.8384    5.0238 H       1  UNL1        0.2105
@<TRIPOS>BOND
     1    29    30    1
     2    29    28    1
     3    29    36    1
     4    30    31    1
     5    30    41    1
     6    31    32    1
     7    31    34    1
     8    32    33    1
     9    32    35    1
    10    33    44    1
    11    33    36    1
    12    44    45    1
    13    39    40    1
    14    39    41   am
    15    39    42    2
    16    41    43    1
    17    28    25    1
    18    34    37    1
    19    35    38    1
    20    45    46    1
    21    15    16   ar
    22    15    20   ar
    23    15     6    1
    24    16    17   ar
    25    16    21    2
    26    17    18   ar
    27    17    23    1
    28    18    19   ar
    29    18    22    2
    30    19    20   ar
    31     6     7    1
    32     6    11    1
    33     7     8    1
    34     7     9    1
    35     8    13    1
    36     9    10    1
    37     9    12    1
    38    10    11    1
    39    10     5    1
    40    12    14    1
    41     5     4    1
    42     4     1    1
    43     1     2    2
    44     1     3    1
    45     1    24    1
    46    24    25    1
    47    25    26    2
    48    25    27    1
@<TRIPOS>MOLECULE
UD1
 46 48 0 0 0
SMALL
GASTEIGER

@<TRIPOS>ATOM
      1 P          22.5918   73.1445   -3.9337 P.3     1  UNL1        0.2189
      2 O          23.5423   72.0685   -3.5765 O.2     1  UNL1       -0.5170
      3 O          23.2347   74.0682   -5.0852 O.3     1  UNL1       -0.4371
      4 O          22.2870   74.0440   -2.6334 O.3     1  UNL1       -0.3112
      5 C          21.6975   73.1795   -1.6610 C.3     1  UNL1        0.1811
      6 C          23.1714   72.2968    1.4974 C.3     1  UNL1        0.2383
      7 C          22.4069   71.0235    1.0564 C.3     1  UNL1        0.1895
      8 O          23.0508   69.8460    1.5444 O.3     1  UNL1       -0.3779
      9 C          22.5017   71.1058   -0.4894 C.3     1  UNL1        0.1713
     10 C          22.7920   72.5932   -0.7680 C.3     1  UNL1        0.1764
     11 O          22.8057   73.2729    0.4989 O.3     1  UNL1       -0.3308
     12 O          23.5670   70.2829   -0.9698 O.3     1  UNL1       -0.3794
     13 H          22.5276   69.0928    1.2371 H       1  UNL1        0.2106
     14 H          23.3563   69.3752   -0.7131 H       1  UNL1        0.2105
     15 N          22.7366   72.7297    2.8260 N.ar    1  UNL1       -0.2551
     16 C          21.4916   72.4442    3.2454 C.ar    1  UNL1        0.3323
     17 N          21.0661   72.8265    4.4641 N.ar    1  UNL1       -0.2743
     18 C          21.8851   73.5145    5.2849 C.ar    1  UNL1        0.2626
     19 C          23.1964   73.8269    4.8536 C.ar    1  UNL1        0.0795
     20 C          23.5991   73.4267    3.6284 C.ar    1  UNL1        0.0869
     21 O          20.7412   71.8243    2.5166 O.2     1  UNL1       -0.2464
     22 O          21.4999   73.8648    6.3850 O.2     1  UNL1       -0.2670
     23 H          20.1664   72.6079    4.7522 H       1  UNL1        0.1734
     24 O          21.2211   72.4938   -4.4691 O.3     1  UNL1       -0.2703
     25 P          21.0137   73.0207   -5.9754 P.3     1  UNL1        0.2208
     26 O          22.1556   72.5883   -6.8107 O.2     1  UNL1       -0.5170
     27 O          20.9284   74.6285   -5.9753 O.3     1  UNL1       -0.4371
     28 O          19.6496   72.4124   -6.5750 O.3     1  UNL1       -0.2865
     29 C          18.6162   72.7041   -5.6325 C.3     1  UNL1        0.2611
     30 C          17.9431   71.3999   -5.2013 C.3     1  UNL1        0.1582
     31 C          17.3664   70.7008   -6.4375 C.3     1  UNL1        0.1625
     32 C          16.4597   71.6879   -7.1804 C.3     1  UNL1        0.1686
     33 C          17.2458   72.9694   -7.4650 C.3     1  UNL1        0.1760
     34 O          16.6075   69.5602   -6.0322 O.3     1  UNL1       -0.3801
     35 O          16.0284   71.1065   -8.4123 O.3     1  UNL1       -0.3794
     36 O          17.6547   73.5674   -6.2355 O.3     1  UNL1       -0.3263
     37 H          16.2645   69.1517   -6.8390 H       1  UNL1        0.2105
     38 H          15.4622   71.7600   -8.8469 H       1  UNL1        0.2105
     39 C          18.7393   70.1104   -3.2940 C.2     1  UNL1        0.2231
     40 C          19.7555   69.2133   -2.6345 C.3     1  UNL1        0.0946
     41 N          18.9298   70.5280   -4.5603 N.am    1  UNL1       -0.2994
     42 O          17.7501   70.4568   -2.6844 O.2     1  UNL1       -0.2751
     43 H          19.7214   70.2511   -5.0483 H       1  UNL1        0.1496
     44 C          16.3590   73.9497   -8.2356 C.3     1  UNL1        0.1693
     45 O          15.3998   73.2214   -9.0048 O.3     1  UNL1       -0.3794
     46 H          14.8631   73.8746   -9.4737 H       1  UNL1        0.2105
@<TRIPOS>BOND
     1    29    30    1
     2    29    28    1
     3    29    36    1
     4    30    31    1
     5    30    41    1
     6    31    32    1
     7    31    34    1
     8    32    33    1
     9    32    35    1
    10    33    44    1
    11    33    36    1
    12    44    45    1
    13    39    40    1
    14    39    41   am
    15    39    42    2
    16    41    43    1
    17    28    25    1
    18    34    37    1
    19    35    38    1
    20    45    46    1
    21    15    16   ar
    22    15    20   ar
    23    15     6    1
    24    16    17   ar
    25    16    21    2
    26    17    18   ar
    27    17    23    1
    28    18    19   ar
    29    18    22    2
    30    19    20   ar
    31     6     7    1
    32     6    11    1
    33     7     8    1
    34     7     9    1
    35     8    13    1
    36     9    10    1
    37     9    12    1
    38    10    11    1
    39    10     5    1
    40    12    14    1
    41     5     4    1
    42     4     1    1
    43     1     2    2
    44     1     3    1
    45     1    24    1
    46    24    25    1
    47    25    26    2
    48    25    27    1
@<TRIPOS>MOLECULE
UD1
 46 48 0 0 0
SMALL
GASTEIGER

@<TRIPOS>ATOM
      1 P          21.4190   71.0512   -0.6748 P.3     1  UNL1        0.2189
      2 O          21.2931   69.8083    0.1176 O.2     1  UNL1       -0.5170
      3 O          22.8791   71.1109   -1.3511 O.3     1  UNL1       -0.4371
      4 O          21.2236   72.3248    0.2908 O.3     1  UNL1       -0.3112
      5 C          22.4897   72.5799    0.9008 C.3     1  UNL1        0.1811
      6 C          22.8845   73.8914    4.2252 C.3     1  UNL1        0.2383
      7 C          21.4812   74.3749    3.7812 C.3     1  UNL1        0.1895
      8 O          20.6029   74.4920    4.9011 O.3     1  UNL1       -0.3779
      9 C          21.0259   73.2311    2.8381 C.3     1  UNL1        0.1713
     10 C          22.3405   72.5429    2.4225 C.3     1  UNL1        0.1764
     11 O          23.4185   73.2690    3.0373 O.3     1  UNL1       -0.3308
     12 O          20.1740   72.3183    3.5337 O.3     1  UNL1       -0.3794
     13 H          19.7510   74.7958    4.5585 H       1  UNL1        0.2106
     14 H          19.3994   72.8212    3.8188 H       1  UNL1        0.2105
     15 N          23.7181   75.0222    4.6346 N.ar    1  UNL1       -0.2551
     16 C          23.6922   75.4411    5.9118 C.ar    1  UNL1        0.3323
     17 N          24.4514   76.4762    6.3173 N.ar    1  UNL1       -0.2743
     18 C          25.2482   77.1192    5.4401 C.ar    1  UNL1        0.2626
     19 C          25.2806   76.6925    4.0911 C.ar    1  UNL1        0.0795
     20 C          24.5130   75.6481    3.7125 C.ar    1  UNL1        0.0869
     21 O          22.9788   74.8713    6.7149 O.2     1  UNL1       -0.2464
     22 O          25.9314   78.0582    5.8045 O.2     1  UNL1       -0.2670
     23 H          24.4239   76.7619    7.2435 H       1  UNL1        0.1734
     24 O          20.2930   71.0715   -1.8240 O.3     1  UNL1       -0.2703
     25 P          21.0656   70.9928   -3.2333 P.3     1  UNL1        0.2208
     26 O          21.9835   69.8326   -3.2285 O.2     1  UNL1       -0.5170
     27 O          21.9113   72.3442   -3.4587 O.3     1  UNL1       -0.4371
     28 O          19.9961   70.8259   -4.4245 O.3     1  UNL1       -0.2865
     29 C          19.7308   72.1356   -4.9299 C.3     1  UNL1        0.2611
     30 C          18.2248   72.3997   -4.8825 C.3     1  UNL1        0.1582
     31 C          17.5033   71.3393   -5.7219 C.3     1  UNL1        0.1625
     32 C          18.1186   71.3230   -7.1252 C.3     1  UNL1        0.1686
     33 C          19.6325   71.1370   -7.0035 C.3     1  UNL1        0.1760
     34 O          16.1139   71.6610   -5.8084 O.3     1  UNL1       -0.3801
     35 O          17.5621   70.2439   -7.8785 O.3     1  UNL1       -0.3794
     36 O          20.1952   72.2275   -6.2750 O.3     1  UNL1       -0.3263
     37 H          15.6998   70.9698   -6.3432 H       1  UNL1        0.2105
     38 H          17.9765   70.2701   -8.7527 H       1  UNL1        0.2105
     39 C          17.4440   73.4575   -2.8317 C.2     1  UNL1        0.2231
     40 C          16.9644   73.3841   -1.4046 C.3     1  UNL1        0.0946
     41 N          17.7584   72.3289   -3.4962 N.am    1  UNL1       -0.2994
     42 O          17.5476   74.5330   -3.3819 O.2     1  UNL1       -0.2751
     43 H          17.6758   71.4680   -3.0561 H       1  UNL1        0.1496
     44 C          20.2529   71.0868   -8.4012 C.3     1  UNL1        0.1693
     45 O          20.2763   69.7350   -8.8641 O.3     1  UNL1       -0.3794
     46 H          20.6739   69.7479   -9.7453 H       1  UNL1        0.2105
@<TRIPOS>BOND
     1    29    30    1
     2    29    28    1
     3    29    36    1
     4    30    31    1
     5    30    41    1
     6    31    32    1
     7    31    34    1
     8    32    33    1
     9    32    35    1
    10    33    44    1
    11    33    36    1
    12    44    45    1
    13    39    40    1
    14    39    41   am
    15    39    42    2
    16    41    43    1
    17    28    25    1
    18    34    37    1
    19    35    38    1
    20    45    46    1
    21    15    16   ar
    22    15    20   ar
    23    15     6    1
    24    16    17   ar
    25    16    21    2
    26    17    18   ar
    27    17    23    1
    28    18    19   ar
    29    18    22    2
    30    19    20   ar
    31     6     7    1
    32     6    11    1
    33     7     8    1
    34     7     9    1
    35     8    13    1
    36     9    10    1
    37     9    12    1
    38    10    11    1
    39    10     5    1
    40    12    14    1
    41     5     4    1
    42     4     1    1
    43     1     2    2
    44     1     3    1
    45     1    24    1
    46    24    25    1
    47    25    26    2
    48    25    27    1
@<TRIPOS>MOLECULE
UD1
 46 48 0 0 0
SMALL
GASTEIGER

@<TRIPOS>ATOM
      1 P          21.5733   71.5389   -3.4309 P.3     1  UNL1        0.2189
      2 O          21.1151   70.2047   -2.9851 O.2     1  UNL1       -0.5170
      3 O          23.1625   71.5024   -3.6876 O.3     1  UNL1       -0.4371
      4 O          21.2394   72.6282   -2.2931 O.3     1  UNL1       -0.3112
      5 C          21.0519   71.9087   -1.0735 C.3     1  UNL1        0.1811
      6 C          23.1331   72.1512    1.8483 C.3     1  UNL1        0.2383
      7 C          22.7090   70.6620    1.7963 C.3     1  UNL1        0.1895
      8 O          23.7213   69.8225    2.3530 O.3     1  UNL1       -0.3779
      9 C          22.5643   70.4177    0.2716 C.3     1  UNL1        0.1713
     10 C          22.3792   71.8293   -0.3178 C.3     1  UNL1        0.1764
     11 O          22.3722   72.7563    0.7813 O.3     1  UNL1       -0.3308
     12 O          23.7434   69.8012   -0.2504 O.3     1  UNL1       -0.3794
     13 H          23.3968   68.9135    2.2910 H       1  UNL1        0.2106
     14 H          23.8364   68.9508    0.1993 H       1  UNL1        0.2105
     15 N          22.7791   72.7473    3.1370 N.ar    1  UNL1       -0.2551
     16 C          21.5316   72.6040    3.6172 C.ar    1  UNL1        0.3323
     17 N          21.1792   73.1383    4.8015 N.ar    1  UNL1       -0.2743
     18 C          22.0761   73.8381    5.5251 C.ar    1  UNL1        0.2626
     19 C          23.3913   74.0017    5.0286 C.ar    1  UNL1        0.0795
     20 C          23.7195   73.4508    3.8403 C.ar    1  UNL1        0.0869
     21 O          20.7114   71.9755    2.9763 O.2     1  UNL1       -0.2464
     22 O          21.7572   74.3256    6.5938 O.2     1  UNL1       -0.2670
     23 H          20.2762   73.0210    5.1349 H       1  UNL1        0.1734
     24 O          20.8176   71.9381   -4.7941 O.3     1  UNL1       -0.2703
     25 P          19.3593   71.2606   -4.7328 P.3     1  UNL1        0.2208
     26 O          18.8130   71.3892   -3.3639 O.2     1  UNL1       -0.5170
     27 O          19.4743   69.7019   -5.1196 O.3     1  UNL1       -0.4371
     28 O          18.3787   71.9994   -5.7735 O.3     1  UNL1       -0.2865
     29 C          17.2220   71.1723   -5.9117 C.3     1  UNL1        0.2611
     30 C          16.6407   71.3476   -7.3157 C.3     1  UNL1        0.1582
     31 C          16.2801   72.8222   -7.5284 C.3     1  UNL1        0.1625
     32 C          15.3669   73.2735   -6.3836 C.3     1  UNL1        0.1686
     33 C          16.0459   72.9556   -5.0497 C.3     1  UNL1        0.1760
     34 O          15.6001   72.9737   -8.7759 O.3     1  UNL1       -0.3801
     35 O          15.1376   74.6804   -6.4814 O.3     1  UNL1       -0.3794
     36 O          16.2515   71.5479   -4.9368 O.3     1  UNL1       -0.3263
     37 H          15.3930   73.9138   -8.8687 H       1  UNL1        0.2105
     38 H          14.5604   74.9217   -5.7432 H       1  UNL1        0.2105
     39 C          18.4807   71.8437   -8.8331 C.2     1  UNL1        0.2231
     40 C          19.5012   71.4202   -9.8585 C.3     1  UNL1        0.0946
     41 N          17.6325   70.9366   -8.3115 N.am    1  UNL1       -0.2994
     42 O          18.4226   73.0015   -8.4779 O.2     1  UNL1       -0.2751
     43 H          17.6787   70.0100   -8.5958 H       1  UNL1        0.1496
     44 C          15.1561   73.4320   -3.8997 C.3     1  UNL1        0.1693
     45 O          13.8145   72.9928   -4.1213 O.3     1  UNL1       -0.3794
     46 H          13.2884   73.3134   -3.3763 H       1  UNL1        0.2105
@<TRIPOS>BOND
     1    29    30    1
     2    29    28    1
     3    29    36    1
     4    30    31    1
     5    30    41    1
     6    31    32    1
     7    31    34    1
     8    32    33    1
     9    32    35    1
    10    33    44    1
    11    33    36    1
    12    44    45    1
    13    39    40    1
    14    39    41   am
    15    39    42    2
    16    41    43    1
    17    28    25    1
    18    34    37    1
    19    35    38    1
    20    45    46    1
    21    15    16   ar
    22    15    20   ar
    23    15     6    1
    24    16    17   ar
    25    16    21    2
    26    17    18   ar
    27    17    23    1
    28    18    19   ar
    29    18    22    2
    30    19    20   ar
    31     6     7    1
    32     6    11    1
    33     7     8    1
    34     7     9    1
    35     8    13    1
    36     9    10    1
    37     9    12    1
    38    10    11    1
    39    10     5    1
    40    12    14    1
    41     5     4    1
    42     4     1    1
    43     1     2    2
    44     1     3    1
    45     1    24    1
    46    24    25    1
    47    25    26    2
    48    25    27    1
@<TRIPOS>MOLECULE
UD1
 46 48 0 0 0
SMALL
GASTEIGER

@<TRIPOS>ATOM
      1 P          20.4940   70.4287   -2.5485 P.3     1  UNL1        0.2189
      2 O          21.7793   69.8106   -2.9418 O.2     1  UNL1       -0.5170
      3 O          19.4481   69.2761   -2.1359 O.3     1  UNL1       -0.4371
      4 O          19.9025   71.2702   -3.7874 O.3     1  UNL1       -0.3112
      5 C          20.9944   71.9970   -4.3530 C.3     1  UNL1        0.1811
      6 C          19.5324   72.4922   -7.6002 C.3     1  UNL1        0.2383
      7 C          20.4646   73.7140   -7.4038 C.3     1  UNL1        0.1895
      8 O          20.9825   74.1681   -8.6547 O.3     1  UNL1       -0.3779
      9 C          21.5933   73.1235   -6.5192 C.3     1  UNL1        0.1713
     10 C          20.9527   71.8777   -5.8772 C.3     1  UNL1        0.1764
     11 O          19.5881   71.8168   -6.3258 O.3     1  UNL1       -0.3308
     12 O          22.7185   72.7584   -7.3213 O.3     1  UNL1       -0.3794
     13 H          21.5516   74.9265   -8.4636 H       1  UNL1        0.2106
     14 H          23.0364   73.5685   -7.7416 H       1  UNL1        0.2105
     15 N          18.1659   72.9239   -7.8964 N.ar    1  UNL1       -0.2551
     16 C          17.8095   73.1830   -9.1665 C.ar    1  UNL1        0.3323
     17 N          16.5585   73.5778   -9.4686 N.ar    1  UNL1       -0.2743
     18 C          15.6397   73.7293   -8.4935 C.ar    1  UNL1        0.2626
     19 C          16.0030   73.4656   -7.1514 C.ar    1  UNL1        0.0795
     20 C          17.2633   73.0658   -6.8771 C.ar    1  UNL1        0.0869
     21 O          18.6270   73.0509  -10.0570 O.2     1  UNL1       -0.2464
     22 O          14.5096   74.0908   -8.7650 O.2     1  UNL1       -0.2670
     23 H          16.3175   73.7559  -10.3908 H       1  UNL1        0.1734
     24 O          20.7319   71.4118   -1.2972 O.3     1  UNL1       -0.2703
     25 P          21.9650   70.8070   -0.4587 P.3     1  UNL1        0.2208
     26 O          23.0843   70.5035   -1.3774 O.2     1  UNL1       -0.5170
     27 O          21.4992   69.4561    0.2831 O.3     1  UNL1       -0.4371
     28 O          22.4476   71.8810    0.6385 O.3     1  UNL1       -0.2865
     29 C          21.2714   72.5180    1.1404 C.3     1  UNL1        0.2611
     30 C          21.3865   74.0288    0.9303 C.3     1  UNL1        0.1582
     31 C          22.6331   74.5427    1.6594 C.3     1  UNL1        0.1625
     32 C          22.5665   74.0910    3.1221 C.3     1  UNL1        0.1686
     33 C          22.3654   72.5748    3.1668 C.3     1  UNL1        0.1760
     34 O          22.6704   75.9696    1.5966 O.3     1  UNL1       -0.3801
     35 O          23.7860   74.4324    3.7838 O.3     1  UNL1       -0.3794
     36 O          21.1345   72.2328    2.5308 O.3     1  UNL1       -0.3263
     37 H          23.4685   76.2492    2.0660 H       1  UNL1        0.2105
     38 H          23.7017   74.1302    4.6992 H       1  UNL1        0.2105
     39 C          22.7166   74.4403   -1.0686 C.2     1  UNL1        0.2231
     40 C          22.8344   74.7376   -2.5418 C.3     1  UNL1        0.0946
     41 N          21.5015   74.3171   -0.5008 N.am    1  UNL1       -0.2994
     42 O          23.7161   74.3126   -0.3941 O.2     1  UNL1       -0.2751
     43 H          20.7015   74.4195   -1.0403 H       1  UNL1        0.1496
     44 C          22.3300   72.1090    4.6239 C.3     1  UNL1        0.1693
     45 O          21.4676   72.9641    5.3769 O.3     1  UNL1       -0.3794
     46 H          21.4739   72.6369    6.2866 H       1  UNL1        0.2105
@<TRIPOS>BOND
     1    29    30    1
     2    29    28    1
     3    29    36    1
     4    30    31    1
     5    30    41    1
     6    31    32    1
     7    31    34    1
     8    32    33    1
     9    32    35    1
    10    33    44    1
    11    33    36    1
    12    44    45    1
    13    39    40    1
    14    39    41   am
    15    39    42    2
    16    41    43    1
    17    28    25    1
    18    34    37    1
    19    35    38    1
    20    45    46    1
    21    15    16   ar
    22    15    20   ar
    23    15     6    1
    24    16    17   ar
    25    16    21    2
    26    17    18   ar
    27    17    23    1
    28    18    19   ar
    29    18    22    2
    30    19    20   ar
    31     6     7    1
    32     6    11    1
    33     7     8    1
    34     7     9    1
    35     8    13    1
    36     9    10    1
    37     9    12    1
    38    10    11    1
    39    10     5    1
    40    12    14    1
    41     5     4    1
    42     4     1    1
    43     1     2    2
    44     1     3    1
    45     1    24    1
    46    24    25    1
    47    25    26    2
    48    25    27    1
@<TRIPOS>MOLECULE
UD1
 46 48 0 0 0
SMALL
GASTEIGER

@<TRIPOS>ATOM
      1 P          22.5189   75.3816   -4.7172 P.3     1  UNL1        0.2189
      2 O          23.6282   74.8990   -5.5689 O.2     1  UNL1       -0.5170
      3 O          22.1369   76.8886   -5.1362 O.3     1  UNL1       -0.4371
      4 O          22.9772   75.3546   -3.1738 O.3     1  UNL1       -0.3112
      5 C          22.4256   76.5193   -2.5578 C.3     1  UNL1        0.1811
      6 C          21.9208   74.3267    0.2466 C.3     1  UNL1        0.2383
      7 C          23.2201   75.0989    0.5866 C.3     1  UNL1        0.1895
      8 O          23.3636   75.2613    1.9981 O.3     1  UNL1       -0.3779
      9 C          22.9774   76.4653   -0.1058 C.3     1  UNL1        0.1713
     10 C          21.9014   76.1618   -1.1662 C.3     1  UNL1        0.1764
     11 O          21.6160   74.7542   -1.0980 O.3     1  UNL1       -0.3308
     12 O          22.5014   77.4271    0.8383 O.3     1  UNL1       -0.3794
     13 H          24.1878   75.7466    2.1419 H       1  UNL1        0.2106
     14 H          23.1926   77.5286    1.5061 H       1  UNL1        0.2105
     15 N          22.1490   72.8819    0.2895 N.ar    1  UNL1       -0.2551
     16 C          21.9196   72.2046    1.4280 C.ar    1  UNL1        0.3323
     17 N          22.1171   70.8747    1.4952 N.ar    1  UNL1       -0.2743
     18 C          22.5601   70.1982    0.4163 C.ar    1  UNL1        0.2626
     19 C          22.8113   70.8997   -0.7869 C.ar    1  UNL1        0.0795
     20 C          22.5997   72.2327   -0.8281 C.ar    1  UNL1        0.0869
     21 O          21.5197   72.8007    2.4095 O.2     1  UNL1       -0.2464
     22 O          22.7436   68.9965    0.4773 O.2     1  UNL1       -0.2670
     23 H          21.9420   70.4015    2.3232 H       1  UNL1        0.1734
     24 O          21.2378   74.4279   -4.9131 O.3     1  UNL1       -0.2703
     25 P          21.7886   73.0133   -5.4468 P.3     1  UNL1        0.2208
     26 O          22.6411   72.3927   -4.4089 O.2     1  UNL1       -0.5170
     27 O          22.6548   73.2439   -6.7843 O.3     1  UNL1       -0.4371
     28 O          20.5479   72.0416   -5.7735 O.3     1  UNL1       -0.2865
     29 C          19.3832   72.8661   -5.8444 C.3     1  UNL1        0.2611
     30 C          18.1479   72.0241   -5.5199 C.3     1  UNL1        0.1582
     31 C          18.0533   70.8667   -6.5204 C.3     1  UNL1        0.1625
     32 C          18.0960   71.4414   -7.9402 C.3     1  UNL1        0.1686
     33 C          19.3371   72.3250   -8.0831 C.3     1  UNL1        0.1760
     34 O          16.8264   70.1617   -6.3223 O.3     1  UNL1       -0.3801
     35 O          18.1569   70.3727   -8.8867 O.3     1  UNL1       -0.3794
     36 O          19.2662   73.4090   -7.1578 O.3     1  UNL1       -0.3263
     37 H          16.8088   69.4441   -6.9704 H       1  UNL1        0.2105
     38 H          18.1831   70.7782   -9.7651 H       1  UNL1        0.2105
     39 C          18.8824   70.3134   -3.9489 C.2     1  UNL1        0.2231
     40 C          18.9994   69.7638   -2.5501 C.3     1  UNL1        0.0946
     41 N          18.2622   71.4901   -4.1612 N.am    1  UNL1       -0.2994
     42 O          19.3463   69.6959   -4.8836 O.2     1  UNL1       -0.2751
     43 H          17.8907   71.9843   -3.4134 H       1  UNL1        0.1496
     44 C          19.4066   72.8781   -9.5080 C.3     1  UNL1        0.1693
     45 O          18.2434   72.4744  -10.2333 O.3     1  UNL1       -0.3794
     46 H          18.3269   72.8424  -11.1234 H       1  UNL1        0.2105
@<TRIPOS>BOND
     1    29    30    1
     2    29    28    1
     3    29    36    1
     4    30    31    1
     5    30    41    1
     6    31    32    1
     7    31    34    1
     8    32    33    1
     9    32    35    1
    10    33    44    1
    11    33    36    1
    12    44    45    1
    13    39    40    1
    14    39    41   am
    15    39    42    2
    16    41    43    1
    17    28    25    1
    18    34    37    1
    19    35    38    1
    20    45    46    1
    21    15    16   ar
    22    15    20   ar
    23    15     6    1
    24    16    17   ar
    25    16    21    2
    26    17    18   ar
    27    17    23    1
    28    18    19   ar
    29    18    22    2
    30    19    20   ar
    31     6     7    1
    32     6    11    1
    33     7     8    1
    34     7     9    1
    35     8    13    1
    36     9    10    1
    37     9    12    1
    38    10    11    1
    39    10     5    1
    40    12    14    1
    41     5     4    1
    42     4     1    1
    43     1     2    2
    44     1     3    1
    45     1    24    1
    46    24    25    1
    47    25    26    2
    48    25    27    1
@<TRIPOS>MOLECULE
UD1
 46 48 0 0 0
SMALL
GASTEIGER

@<TRIPOS>ATOM
      1 P          17.2098   72.4576   -3.5049 P.3     1  UNL1        0.2189
      2 O          16.9463   73.6132   -4.3903 O.2     1  UNL1       -0.5170
      3 O          16.6560   72.7766   -2.0270 O.3     1  UNL1       -0.4371
      4 O          18.7954   72.1857   -3.4357 O.3     1  UNL1       -0.3112
      5 C          19.1391   72.0908   -2.0525 C.3     1  UNL1        0.1811
      6 C          22.2513   72.2847   -0.2627 C.3     1  UNL1        0.2383
      7 C          21.7907   70.8165   -0.0825 C.3     1  UNL1        0.1895
      8 O          22.9118   69.9399    0.0351 O.3     1  UNL1       -0.3779
      9 C          21.0184   70.5533   -1.4014 C.3     1  UNL1        0.1713
     10 C          20.6565   71.9619   -1.9108 C.3     1  UNL1        0.1764
     11 O          21.1389   72.9068   -0.9403 O.3     1  UNL1       -0.3308
     12 O          21.8521   69.8731   -2.3422 O.3     1  UNL1       -0.3794
     13 H          22.5584   69.0462    0.1447 H       1  UNL1        0.2106
     14 H          22.0926   69.0270   -1.9415 H       1  UNL1        0.2105
     15 N          22.4850   72.9188    1.0353 N.ar    1  UNL1       -0.2551
     16 C          21.9010   72.4163    2.1370 C.ar    1  UNL1        0.3323
     17 N          22.1012   72.9767    3.3446 N.ar    1  UNL1       -0.2743
     18 C          22.8890   74.0641    3.4668 C.ar    1  UNL1        0.2626
     19 C          23.5052   74.6069    2.3142 C.ar    1  UNL1        0.0795
     20 C          23.2916   74.0218    1.1162 C.ar    1  UNL1        0.0869
     21 O          21.1877   71.4360    2.0430 O.2     1  UNL1       -0.2464
     22 O          23.0669   74.5744    4.5573 O.2     1  UNL1       -0.2670
     23 H          21.6758   72.5982    4.1294 H       1  UNL1        0.1734
     24 O          16.4670   71.1547   -4.0876 O.3     1  UNL1       -0.2703
     25 P          17.3892   70.5874   -5.2781 P.3     1  UNL1        0.2208
     26 O          16.6308   69.5801   -6.0521 O.2     1  UNL1       -0.5170
     27 O          18.7083   69.9043   -4.6572 O.3     1  UNL1       -0.4371
     28 O          17.8192   71.7973   -6.2486 O.3     1  UNL1       -0.2865
     29 C          19.2064   71.6206   -6.5415 C.3     1  UNL1        0.2611
     30 C          19.8098   72.9634   -6.9572 C.3     1  UNL1        0.1582
     31 C          19.0602   73.4910   -8.1857 C.3     1  UNL1        0.1625
     32 C          19.0716   72.4076   -9.2694 C.3     1  UNL1        0.1686
     33 C          18.5209   71.1074   -8.6800 C.3     1  UNL1        0.1760
     34 O          19.7080   74.6674   -8.6732 O.3     1  UNL1       -0.3801
     35 O          18.2545   72.8205  -10.3665 O.3     1  UNL1       -0.3794
     36 O          19.3505   70.6776   -7.6014 O.3     1  UNL1       -0.3263
     37 H          19.2046   74.9647   -9.4436 H       1  UNL1        0.2105
     38 H          18.2892   72.1109  -11.0237 H       1  UNL1        0.2105
     39 C          20.7761   74.3276   -5.1853 C.2     1  UNL1        0.2231
     40 C          20.6434   75.3120   -4.0515 C.3     1  UNL1        0.0946
     41 N          19.6814   73.9201   -5.8560 N.am    1  UNL1       -0.2994
     42 O          21.8687   73.9017   -5.4937 O.2     1  UNL1       -0.2751
     43 H          18.8069   74.2606   -5.6092 H       1  UNL1        0.1496
     44 C          18.4977   70.0274   -9.7636 C.3     1  UNL1        0.1693
     45 O          19.4079   70.3796  -10.8074 O.3     1  UNL1       -0.3794
     46 H          19.3624   69.6751  -11.4679 H       1  UNL1        0.2105
@<TRIPOS>BOND
     1    29    30    1
     2    29    28    1
     3    29    36    1
     4    30    31    1
     5    30    41    1
     6    31    32    1
     7    31    34    1
     8    32    33    1
     9    32    35    1
    10    33    44    1
    11    33    36    1
    12    44    45    1
    13    39    40    1
    14    39    41   am
    15    39    42    2
    16    41    43    1
    17    28    25    1
    18    34    37    1
    19    35    38    1
    20    45    46    1
    21    15    16   ar
    22    15    20   ar
    23    15     6    1
    24    16    17   ar
    25    16    21    2
    26    17    18   ar
    27    17    23    1
    28    18    19   ar
    29    18    22    2
    30    19    20   ar
    31     6     7    1
    32     6    11    1
    33     7     8    1
    34     7     9    1
    35     8    13    1
    36     9    10    1
    37     9    12    1
    38    10    11    1
    39    10     5    1
    40    12    14    1
    41     5     4    1
    42     4     1    1
    43     1     2    2
    44     1     3    1
    45     1    24    1
    46    24    25    1
    47    25    26    2
    48    25    27    1
@<TRIPOS>MOLECULE
UD1
 46 48 0 0 0
SMALL
GASTEIGER

@<TRIPOS>ATOM
      1 P          18.9664   70.0620   -3.3759 P.3     1  UNL1        0.2189
      2 O          18.2526   71.2905   -2.9636 O.2     1  UNL1       -0.5170
      3 O          18.4838   68.8281   -2.4609 O.3     1  UNL1       -0.4371
      4 O          20.5518   70.2763   -3.1933 O.3     1  UNL1       -0.3112
      5 C          20.7887   70.4415   -1.7944 C.3     1  UNL1        0.1811
      6 C          21.6076   73.2156    0.3412 C.3     1  UNL1        0.2383
      7 C          22.9519   72.8279   -0.3243 C.3     1  UNL1        0.1895
      8 O          23.7940   73.9708   -0.4790 O.3     1  UNL1       -0.3779
      9 C          22.4895   72.2906   -1.7036 C.3     1  UNL1        0.1713
     10 C          21.0091   71.9230   -1.4849 C.3     1  UNL1        0.1764
     11 O          20.7005   72.1855   -0.1054 O.3     1  UNL1       -0.3308
     12 O          22.6177   73.3034   -2.7038 O.3     1  UNL1       -0.3794
     13 H          24.6104   73.6629   -0.8963 H       1  UNL1        0.2106
     14 H          23.5556   73.5321   -2.7510 H       1  UNL1        0.2105
     15 N          21.7269   73.2015    1.7996 N.ar    1  UNL1       -0.2551
     16 C          21.8332   72.0287    2.4481 C.ar    1  UNL1        0.3323
     17 N          21.9482   71.9859    3.7887 N.ar    1  UNL1       -0.2743
     18 C          21.9493   73.1267    4.5074 C.ar    1  UNL1        0.2626
     19 C          21.8321   74.3680    3.8379 C.ar    1  UNL1        0.0795
     20 C          21.7235   74.3823    2.4920 C.ar    1  UNL1        0.0869
     21 O          21.8338   70.9912    1.8139 O.2     1  UNL1       -0.2464
     22 O          22.0484   73.0890    5.7199 O.2     1  UNL1       -0.2670
     23 H          22.0287   71.1313    4.2397 H       1  UNL1        0.1734
     24 O          18.6422   69.7455   -4.9198 O.3     1  UNL1       -0.2703
     25 P          17.2018   70.3903   -5.2340 P.3     1  UNL1        0.2208
     26 O          16.3931   70.4180   -3.9954 O.2     1  UNL1       -0.5170
     27 O          16.4475   69.5043   -6.3468 O.3     1  UNL1       -0.4371
     28 O          17.3926   71.8909   -5.7839 O.3     1  UNL1       -0.2865
     29 C          16.3093   72.1449   -6.6800 C.3     1  UNL1        0.2611
     30 C          16.8677   72.5224   -8.0532 C.3     1  UNL1        0.1582
     31 C          17.7538   73.7648   -7.9097 C.3     1  UNL1        0.1625
     32 C          16.9475   74.8636   -7.2091 C.3     1  UNL1        0.1686
     33 C          16.3856   74.3102   -5.8979 C.3     1  UNL1        0.1760
     34 O          18.1601   74.2153   -9.2033 O.3     1  UNL1       -0.3801
     35 O          17.7978   75.9784   -6.9336 O.3     1  UNL1       -0.3794
     36 O          15.5142   73.2138   -6.1715 O.3     1  UNL1       -0.3263
     37 H          18.7142   74.9959   -9.0660 H       1  UNL1        0.2105
     38 H          17.2515   76.6447   -6.4929 H       1  UNL1        0.2105
     39 C          18.9986   71.3980   -8.4129 C.2     1  UNL1        0.2231
     40 C          19.8162   70.2545   -8.9571 C.3     1  UNL1        0.0946
     41 N          17.6623   71.4114   -8.5812 N.am    1  UNL1       -0.2994
     42 O          19.5439   72.3068   -7.8238 O.2     1  UNL1       -0.2751
     43 H          17.2257   70.6844   -9.0528 H       1  UNL1        0.1496
     44 C          15.6055   75.4099   -5.1745 C.3     1  UNL1        0.1693
     45 O          14.9321   76.2269   -6.1342 O.3     1  UNL1       -0.3794
     46 H          14.4543   76.9054   -5.6381 H       1  UNL1        0.2105
@<TRIPOS>BOND
     1    29    30    1
     2    29    28    1
     3    29    36    1
     4    30    31    1
     5    30    41    1
     6    31    32    1
     7    31    34    1
     8    32    33    1
     9    32    35    1
    10    33    44    1
    11    33    36    1
    12    44    45    1
    13    39    40    1
    14    39    41   am
    15    39    42    2
    16    41    43    1
    17    28    25    1
    18    34    37    1
    19    35    38    1
    20    45    46    1
    21    15    16   ar
    22    15    20   ar
    23    15     6    1
    24    16    17   ar
    25    16    21    2
    26    17    18   ar
    27    17    23    1
    28    18    19   ar
    29    18    22    2
    30    19    20   ar
    31     6     7    1
    32     6    11    1
    33     7     8    1
    34     7     9    1
    35     8    13    1
    36     9    10    1
    37     9    12    1
    38    10    11    1
    39    10     5    1
    40    12    14    1
    41     5     4    1
    42     4     1    1
    43     1     2    2
    44     1     3    1
    45     1    24    1
    46    24    25    1
    47    25    26    2
    48    25    27    1
@<TRIPOS>MOLECULE
UD1
 46 48 0 0 0
SMALL
GASTEIGER

@<TRIPOS>ATOM
      1 P          21.9755   74.2344   -6.8015 P.3     1  UNL1        0.2189
      2 O          20.8117   75.0474   -7.2179 O.2     1  UNL1       -0.5170
      3 O          23.3206   75.1067   -6.9509 O.3     1  UNL1       -0.4371
      4 O          22.0782   72.9273   -7.7361 O.3     1  UNL1       -0.3112
      5 C          21.3421   73.2110   -8.9270 C.3     1  UNL1        0.1811
      6 C          18.7164   71.1185   -7.6408 C.3     1  UNL1        0.2383
      7 C          18.0229   72.4709   -7.9415 C.3     1  UNL1        0.1895
      8 O          16.6563   72.2745   -8.3064 O.3     1  UNL1       -0.3779
      9 C          18.8466   72.9988   -9.1448 C.3     1  UNL1        0.1713
     10 C          20.1776   72.2276   -9.0544 C.3     1  UNL1        0.1764
     11 O          20.1122   71.3932   -7.8854 O.3     1  UNL1       -0.3308
     12 O          18.1769   72.7113  -10.3743 O.3     1  UNL1       -0.3794
     13 H          16.2839   73.1503   -8.4793 H       1  UNL1        0.2106
     14 H          17.3281   73.1726  -10.3444 H       1  UNL1        0.2105
     15 N          18.5043   70.7245   -6.2475 N.ar    1  UNL1       -0.2551
     16 C          17.3781   70.0766   -5.9024 C.ar    1  UNL1        0.3323
     17 N          17.1583   69.6987   -4.6291 N.ar    1  UNL1       -0.2743
     18 C          18.0669   69.9746   -3.6720 C.ar    1  UNL1        0.2626
     19 C          19.2542   70.6615   -4.0204 C.ar    1  UNL1        0.0795
     20 C          19.4517   71.0242   -5.3060 C.ar    1  UNL1        0.0869
     21 O          16.5491   69.8205   -6.7543 O.2     1  UNL1       -0.2464
     22 O          17.8671   69.6376   -2.5196 O.2     1  UNL1       -0.2670
     23 H          16.3425   69.2279   -4.3989 H       1  UNL1        0.1734
     24 O          21.7943   73.7841   -5.2675 O.3     1  UNL1       -0.2703
     25 P          21.6651   75.1328   -4.3993 P.3     1  UNL1        0.2208
     26 O          20.6240   74.9545   -3.3633 O.2     1  UNL1       -0.5170
     27 O          21.2574   76.3558   -5.3638 O.3     1  UNL1       -0.4371
     28 O          23.0751   75.4551   -3.6931 O.3     1  UNL1       -0.2865
     29 C          23.6517   74.2003   -3.3269 C.3     1  UNL1        0.2611
     30 C          23.7583   74.1190   -1.8031 C.3     1  UNL1        0.1582
     31 C          24.6230   75.2797   -1.2985 C.3     1  UNL1        0.1625
     32 C          25.9595   75.2570   -2.0478 C.3     1  UNL1        0.1686
     33 C          25.6868   75.2555   -3.5534 C.3     1  UNL1        0.1760
     34 O          24.8538   75.1306    0.1036 O.3     1  UNL1       -0.3801
     35 O          26.7221   76.4141   -1.6999 O.3     1  UNL1       -0.3794
     36 O          24.9487   74.0870   -3.9086 O.3     1  UNL1       -0.3263
     37 H          25.3998   75.8801    0.3781 H       1  UNL1        0.2105
     38 H          27.5530   76.3603   -2.1932 H       1  UNL1        0.2105
     39 C          22.0602   73.3676   -0.2263 C.2     1  UNL1        0.2231
     40 C          20.6836   73.4620    0.3806 C.3     1  UNL1        0.0946
     41 N          22.4213   74.2106   -1.2129 N.am    1  UNL1       -0.2994
     42 O          22.8429   72.5321    0.1731 O.2     1  UNL1       -0.2751
     43 H          21.7950   74.8792   -1.5328 H       1  UNL1        0.1496
     44 C          27.0159   75.2658   -4.3113 C.3     1  UNL1        0.1693
     45 O          28.0327   74.6760   -3.4985 O.3     1  UNL1       -0.3794
     46 H          28.8515   74.7025   -4.0117 H       1  UNL1        0.2105
@<TRIPOS>BOND
     1    29    30    1
     2    29    28    1
     3    29    36    1
     4    30    31    1
     5    30    41    1
     6    31    32    1
     7    31    34    1
     8    32    33    1
     9    32    35    1
    10    33    44    1
    11    33    36    1
    12    44    45    1
    13    39    40    1
    14    39    41   am
    15    39    42    2
    16    41    43    1
    17    28    25    1
    18    34    37    1
    19    35    38    1
    20    45    46    1
    21    15    16   ar
    22    15    20   ar
    23    15     6    1
    24    16    17   ar
    25    16    21    2
    26    17    18   ar
    27    17    23    1
    28    18    19   ar
    29    18    22    2
    30    19    20   ar
    31     6     7    1
    32     6    11    1
    33     7     8    1
    34     7     9    1
    35     8    13    1
    36     9    10    1
    37     9    12    1
    38    10    11    1
    39    10     5    1
    40    12    14    1
    41     5     4    1
    42     4     1    1
    43     1     2    2
    44     1     3    1
    45     1    24    1
    46    24    25    1
    47    25    26    2
    48    25    27    1
@<TRIPOS>MOLECULE
UD1
 46 48 0 0 0
SMALL
GASTEIGER

@<TRIPOS>ATOM
      1 P          22.9386   72.3458   -3.3873 P.3     1  UNL1        0.2189
      2 O          23.6476   72.8447   -4.5861 O.2     1  UNL1       -0.5170
      3 O          23.3948   70.8315   -3.0853 O.3     1  UNL1       -0.4371
      4 O          21.3502   72.3845   -3.6491 O.3     1  UNL1       -0.3112
      5 C          20.9160   71.0284   -3.7613 C.3     1  UNL1        0.1811
      6 C          17.4140   71.2997   -4.5290 C.3     1  UNL1        0.2383
      7 C          17.7617   69.8183   -4.8205 C.3     1  UNL1        0.1895
      8 O          16.6360   68.9726   -4.5822 O.3     1  UNL1       -0.3779
      9 C          18.8900   69.5404   -3.7934 C.3     1  UNL1        0.1713
     10 C          19.4241   70.9409   -3.4360 C.3     1  UNL1        0.1764
     11 O          18.6945   71.8940   -4.2276 O.3     1  UNL1       -0.3308
     12 O          18.3632   68.8884   -2.6358 O.3     1  UNL1       -0.3794
     13 H          16.9172   68.0690   -4.7817 H       1  UNL1        0.2106
     14 H          17.9918   68.0473   -2.9338 H       1  UNL1        0.2105
     15 N          16.8146   71.9334   -5.7039 N.ar    1  UNL1       -0.2551
     16 C          17.1020   71.4675   -6.9318 C.ar    1  UNL1        0.3323
     17 N          16.5620   72.0284   -8.0300 N.ar    1  UNL1       -0.2743
     18 C          15.7258   73.0798   -7.9147 C.ar    1  UNL1        0.2626
     19 C          15.4193   73.5842   -6.6284 C.ar    1  UNL1        0.0795
     20 C          15.9707   72.9992   -5.5435 C.ar    1  UNL1        0.0869
     21 O          17.8544   70.5198   -7.0520 O.2     1  UNL1       -0.2464
     22 O          15.2408   73.5907   -8.9072 O.2     1  UNL1       -0.2670
     23 H          16.7766   71.6764   -8.9076 H       1  UNL1        0.1734
     24 O          23.2971   73.2772   -2.1253 O.3     1  UNL1       -0.2703
     25 P          22.4630   72.7054   -0.8737 P.3     1  UNL1        0.2208
     26 O          22.5351   71.2277   -0.8666 O.2     1  UNL1       -0.5170
     27 O          20.9252   73.1662   -0.9971 O.3     1  UNL1       -0.4371
     28 O          23.0855   73.2795    0.4951 O.3     1  UNL1       -0.2865
     29 C          22.0660   74.0636    1.1172 C.3     1  UNL1        0.2611
     30 C          22.6498   75.4164    1.5285 C.3     1  UNL1        0.1582
     31 C          23.8189   75.1856    2.4926 C.3     1  UNL1        0.1625
     32 C          23.3337   74.3059    3.6496 C.3     1  UNL1        0.1686
     33 C          22.7010   73.0353    3.0782 C.3     1  UNL1        0.1760
     34 O          24.2761   76.4406    2.9999 O.3     1  UNL1       -0.3801
     35 O          24.4415   73.9572    4.4820 O.3     1  UNL1       -0.3794
     36 O          21.5773   73.3784    2.2683 O.3     1  UNL1       -0.3263
     37 H          25.0099   76.2488    3.6000 H       1  UNL1        0.2105
     38 H          24.0923   73.4042    5.1952 H       1  UNL1        0.2105
     39 C          24.4070   75.9918   -0.0575 C.2     1  UNL1        0.2231
     40 C          24.8978   76.7228   -1.2810 C.3     1  UNL1        0.0946
     41 N          23.1269   76.1259    0.3397 N.am    1  UNL1       -0.2994
     42 O          25.1647   75.2831    0.5700 O.2     1  UNL1       -0.2751
     43 H          22.5204   76.6932   -0.1622 H       1  UNL1        0.1496
     44 C          22.2422   72.1346    4.2269 C.3     1  UNL1        0.1693
     45 O          21.6644   72.9358    5.2595 O.3     1  UNL1       -0.3794
     46 H          21.3896   72.3313    5.9621 H       1  UNL1        0.2105
@<TRIPOS>BOND
     1    29    30    1
     2    29    28    1
     3    29    36    1
     4    30    31    1
     5    30    41    1
     6    31    32    1
     7    31    34    1
     8    32    33    1
     9    32    35    1
    10    33    44    1
    11    33    36    1
    12    44    45    1
    13    39    40    1
    14    39    41   am
    15    39    42    2
    16    41    43    1
    17    28    25    1
    18    34    37    1
    19    35    38    1
    20    45    46    1
    21    15    16   ar
    22    15    20   ar
    23    15     6    1
    24    16    17   ar
    25    16    21    2
    26    17    18   ar
    27    17    23    1
    28    18    19   ar
    29    18    22    2
    30    19    20   ar
    31     6     7    1
    32     6    11    1
    33     7     8    1
    34     7     9    1
    35     8    13    1
    36     9    10    1
    37     9    12    1
    38    10    11    1
    39    10     5    1
    40    12    14    1
    41     5     4    1
    42     4     1    1
    43     1     2    2
    44     1     3    1
    45     1    24    1
    46    24    25    1
    47    25    26    2
    48    25    27    1
