@<TRIPOS>MOLECULE
GDU
 43 45 0 0 0
SMALL
GASTEIGER

@<TRIPOS>ATOM
      1 P          22.1738   70.8220   -2.4834 P.3     1  UNL1        0.2189
      2 O          21.5519   69.6047   -1.9169 O.2     1  UNL1       -0.5170
      3 O          23.5474   70.4273   -3.2252 O.3     1  UNL1       -0.4371
      4 O          21.1674   71.4968   -3.5411 O.3     1  UNL1       -0.3112
      5 C          20.2015   72.2283   -2.7846 C.3     1  UNL1        0.1811
      6 C          17.9418   71.3061   -5.4248 C.3     1  UNL1        0.2383
      7 C          18.0429   70.0383   -4.5387 C.3     1  UNL1        0.1895
      8 O          16.8234   69.2933   -4.5734 O.3     1  UNL1       -0.3779
      9 C          18.2811   70.6440   -3.1310 C.3     1  UNL1        0.1713
     10 C          18.8195   72.0579   -3.4181 C.3     1  UNL1        0.1764
     11 O          18.9158   72.2003   -4.8459 O.3     1  UNL1       -0.3308
     12 O          17.0548   70.7072   -2.4002 O.3     1  UNL1       -0.3794
     13 H          16.9521   68.5212   -4.0050 H       1  UNL1        0.2106
     14 H          16.7388   69.7986   -2.3042 H       1  UNL1        0.2105
     15 N          18.2869   70.9965   -6.8133 N.ar    1  UNL1       -0.2551
     16 C          17.3151   70.6808   -7.6875 C.ar    1  UNL1        0.3323
     17 N          17.6051   70.3954   -8.9706 N.ar    1  UNL1       -0.2743
     18 C          18.8820   70.4120   -9.3990 C.ar    1  UNL1        0.2626
     19 C          19.9166   70.7372   -8.4879 C.ar    1  UNL1        0.0795
     20 C          19.5975   71.0234   -7.2078 C.ar    1  UNL1        0.0869
     21 O          16.1585   70.6622   -7.3158 O.2     1  UNL1       -0.2464
     22 O          19.1460   70.1492  -10.5590 O.2     1  UNL1       -0.2670
     23 H          16.8907   70.1739   -9.5889 H       1  UNL1        0.1734
     24 O          22.4866   71.8652   -1.2975 O.3     1  UNL1       -0.2703
     25 P          22.4144   71.0392    0.0818 P.3     1  UNL1        0.2208
     26 O          21.0814   70.4103    0.2107 O.2     1  UNL1       -0.5170
     27 O          23.5488   69.8958    0.0822 O.3     1  UNL1       -0.4371
     28 O          22.6600   72.0375    1.3199 O.3     1  UNL1       -0.2858
     29 C          21.3884   72.5858    1.6694 C.3     1  UNL1        0.2704
     30 C          21.3226   74.0461    1.2194 C.3     1  UNL1        0.1967
     31 C          22.4530   74.8277    1.8959 C.3     1  UNL1        0.1715
     32 C          22.3634   74.6072    3.4101 C.3     1  UNL1        0.1694
     33 C          22.3523   73.1031    3.6942 C.3     1  UNL1        0.1761
     34 O          21.4723   74.1169   -0.1997 O.3     1  UNL1       -0.3775
     35 O          22.3169   76.2197    1.6021 O.3     1  UNL1       -0.3794
     36 O          21.1645   75.2015    3.9094 O.3     1  UNL1       -0.3794
     37 O          21.2103   72.5060    3.0817 O.3     1  UNL1       -0.3258
     38 H          20.7457   73.6067   -0.5827 H       1  UNL1        0.2106
     39 H          22.3671   76.3094    0.6421 H       1  UNL1        0.2105
     40 H          21.2127   76.1442    3.7037 H       1  UNL1        0.2105
     41 C          22.2975   72.8718    5.2060 C.3     1  UNL1        0.1693
     42 O          20.9630   73.0810    5.6710 O.3     1  UNL1       -0.3794
     43 H          20.9715   72.9250    6.6254 H       1  UNL1        0.2105
@<TRIPOS>BOND
     1    15    16   ar
     2    15    20   ar
     3    15     6    1
     4    16    17   ar
     5    16    21    2
     6    17    18   ar
     7    17    23    1
     8    18    19   ar
     9    18    22    2
    10    19    20   ar
    11     6     7    1
    12     6    11    1
    13     7     8    1
    14     7     9    1
    15     8    13    1
    16     9    10    1
    17     9    12    1
    18    10    11    1
    19    10     5    1
    20    12    14    1
    21     5     4    1
    22     4     1    1
    23     1     2    2
    24     1     3    1
    25     1    24    1
    26    24    25    1
    27    25    26    2
    28    25    27    1
    29    25    28    1
    30    28    29    1
    31    29    30    1
    32    29    37    1
    33    30    31    1
    34    30    34    1
    35    31    32    1
    36    31    35    1
    37    32    33    1
    38    32    36    1
    39    33    41    1
    40    33    37    1
    41    41    42    1
    42    34    38    1
    43    35    39    1
    44    36    40    1
    45    42    43    1
@<TRIPOS>MOLECULE
GDU
 43 45 0 0 0
SMALL
GASTEIGER

@<TRIPOS>ATOM
      1 P          22.1367   70.9666   -2.6106 P.3     1  UNL1        0.2189
      2 O          21.5484   69.6283   -2.3815 O.2     1  UNL1       -0.5170
      3 O          23.5828   70.8061   -3.3005 O.3     1  UNL1       -0.4371
      4 O          21.1731   71.8187   -3.5761 O.3     1  UNL1       -0.3112
      5 C          20.1763   72.4148   -2.7446 C.3     1  UNL1        0.1811
      6 C          17.9311   71.4133   -5.3683 C.3     1  UNL1        0.2383
      7 C          18.0423   70.1663   -4.4542 C.3     1  UNL1        0.1895
      8 O          16.8300   69.4092   -4.4749 O.3     1  UNL1       -0.3779
      9 C          18.2717   70.8051   -3.0597 C.3     1  UNL1        0.1713
     10 C          18.7974   72.2174   -3.3769 C.3     1  UNL1        0.1764
     11 O          18.8954   72.3292   -4.8073 O.3     1  UNL1       -0.3308
     12 O          17.0432   70.8727   -2.3330 O.3     1  UNL1       -0.3794
     13 H          16.9647   68.6510   -3.8893 H       1  UNL1        0.2106
     14 H          16.7356   69.9635   -2.2176 H       1  UNL1        0.2105
     15 N          18.2822   71.0765   -6.7489 N.ar    1  UNL1       -0.2551
     16 C          17.3138   70.7471   -7.6218 C.ar    1  UNL1        0.3323
     17 N          17.6093   70.4367   -8.8978 N.ar    1  UNL1       -0.2743
     18 C          18.8884   70.4415   -9.3201 C.ar    1  UNL1        0.2626
     19 C          19.9194   70.7808   -8.4101 C.ar    1  UNL1        0.0795
     20 C          19.5948   71.0922   -7.1373 C.ar    1  UNL1        0.0869
     21 O          16.1554   70.7389   -7.2556 O.2     1  UNL1       -0.2464
     22 O          19.1573   70.1560  -10.4736 O.2     1  UNL1       -0.2670
     23 H          16.8973   70.2056   -9.5154 H       1  UNL1        0.1734
     24 O          22.2974   71.7294   -1.2018 O.3     1  UNL1       -0.2703
     25 P          21.9251   70.6676   -0.0511 P.3     1  UNL1        0.2208
     26 O          20.9412   69.6957   -0.5768 O.2     1  UNL1       -0.5170
     27 O          23.2564   69.8870    0.4096 O.3     1  UNL1       -0.4371
     28 O          21.2944   71.4417    1.2111 O.3     1  UNL1       -0.2858
     29 C          22.3033   72.3252    1.7024 C.3     1  UNL1        0.2704
     30 C          22.1182   72.5225    3.2078 C.3     1  UNL1        0.1967
     31 C          20.7224   73.0976    3.4674 C.3     1  UNL1        0.1715
     32 C          20.5472   74.3612    2.6175 C.3     1  UNL1        0.1694
     33 C          20.8497   74.0236    1.1555 C.3     1  UNL1        0.1761
     34 O          22.2516   71.2663    3.8751 O.3     1  UNL1       -0.3775
     35 O          20.5879   73.4249    4.8520 O.3     1  UNL1       -0.3794
     36 O          21.4454   75.3731    3.0750 O.3     1  UNL1       -0.3794
     37 O          22.2004   73.5800    1.0335 O.3     1  UNL1       -0.3258
     38 H          23.1399   70.9389    3.6785 H       1  UNL1        0.2106
     39 H          20.7170   72.6060    5.3470 H       1  UNL1        0.2105
     40 H          21.2223   75.5487    3.9984 H       1  UNL1        0.2105
     41 C          20.6444   75.2709    0.2928 C.3     1  UNL1        0.1693
     42 O          21.8724   75.6090   -0.3542 O.3     1  UNL1       -0.3794
     43 H          21.7002   76.3975   -0.8870 H       1  UNL1        0.2105
@<TRIPOS>BOND
     1    15    16   ar
     2    15    20   ar
     3    15     6    1
     4    16    17   ar
     5    16    21    2
     6    17    18   ar
     7    17    23    1
     8    18    19   ar
     9    18    22    2
    10    19    20   ar
    11     6     7    1
    12     6    11    1
    13     7     8    1
    14     7     9    1
    15     8    13    1
    16     9    10    1
    17     9    12    1
    18    10    11    1
    19    10     5    1
    20    12    14    1
    21     5     4    1
    22     4     1    1
    23     1     2    2
    24     1     3    1
    25     1    24    1
    26    24    25    1
    27    25    26    2
    28    25    27    1
    29    25    28    1
    30    28    29    1
    31    29    30    1
    32    29    37    1
    33    30    31    1
    34    30    34    1
    35    31    32    1
    36    31    35    1
    37    32    33    1
    38    32    36    1
    39    33    41    1
    40    33    37    1
    41    41    42    1
    42    34    38    1
    43    35    39    1
    44    36    40    1
    45    42    43    1
@<TRIPOS>MOLECULE
GDU
 43 45 0 0 0
SMALL
GASTEIGER

@<TRIPOS>ATOM
      1 P          21.9495   70.5323   -0.3078 P.3     1  UNL1        0.2189
      2 O          21.2767   71.1942    0.8319 O.2     1  UNL1       -0.5170
      3 O          22.9122   69.3644    0.2422 O.3     1  UNL1       -0.4371
      4 O          20.8443   69.8988   -1.2896 O.3     1  UNL1       -0.3112
      5 C          20.9967   70.5438   -2.5551 C.3     1  UNL1        0.1811
      6 C          18.4639   70.9811   -5.0693 C.3     1  UNL1        0.2383
      7 C          18.1215   69.6235   -4.4040 C.3     1  UNL1        0.1895
      8 O          16.7128   69.3826   -4.4325 O.3     1  UNL1       -0.3779
      9 C          18.6163   69.8401   -2.9502 C.3     1  UNL1        0.1713
     10 C          19.6278   70.9953   -3.0674 C.3     1  UNL1        0.1764
     11 O          19.7191   71.3485   -4.4585 O.3     1  UNL1       -0.3308
     12 O          17.5266   70.2047   -2.1007 O.3     1  UNL1       -0.3794
     13 H          16.5676   68.5267   -4.0058 H       1  UNL1        0.2106
     14 H          16.9012   69.4675   -2.1154 H       1  UNL1        0.2105
     15 N          18.6209   70.8239   -6.5162 N.ar    1  UNL1       -0.2551
     16 C          17.5314   70.7397   -7.2999 C.ar    1  UNL1        0.3323
     17 N          17.6480   70.5985   -8.6334 N.ar    1  UNL1       -0.2743
     18 C          18.8652   70.5289   -9.2059 C.ar    1  UNL1        0.2626
     19 C          20.0217   70.6104   -8.3922 C.ar    1  UNL1        0.0795
     20 C          19.8762   70.7562   -7.0581 C.ar    1  UNL1        0.0869
     21 O          16.4267   70.8014   -6.7978 O.2     1  UNL1       -0.2464
     22 O          18.9718   70.3962  -10.4124 O.2     1  UNL1       -0.2670
     23 H          16.8509   70.5437   -9.1842 H       1  UNL1        0.1734
     24 O          22.8278   71.6148   -1.1136 O.3     1  UNL1       -0.2703
     25 P          22.4104   73.0645   -0.5533 P.3     1  UNL1        0.2208
     26 O          23.0886   74.1136   -1.3461 O.2     1  UNL1       -0.5170
     27 O          20.8148   73.2477   -0.6753 O.3     1  UNL1       -0.4371
     28 O          22.8472   73.1906    0.9905 O.3     1  UNL1       -0.2858
     29 C          22.5317   74.5208    1.4037 C.3     1  UNL1        0.2704
     30 C          23.7791   75.1798    1.9945 C.3     1  UNL1        0.1967
     31 C          24.2682   74.3460    3.1828 C.3     1  UNL1        0.1715
     32 C          23.1039   74.1582    4.1619 C.3     1  UNL1        0.1694
     33 C          21.9074   73.5744    3.4065 C.3     1  UNL1        0.1761
     34 O          24.8027   75.2448    0.9999 O.3     1  UNL1       -0.3775
     35 O          25.3430   75.0249    3.8357 O.3     1  UNL1       -0.3794
     36 O          22.7478   75.4200    4.7286 O.3     1  UNL1       -0.3794
     37 O          21.4963   74.4794    2.3829 O.3     1  UNL1       -0.3258
     38 H          24.4494   75.7715    0.2700 H       1  UNL1        0.2106
     39 H          26.0452   75.1314    3.1816 H       1  UNL1        0.2105
     40 H          23.5304   75.7515    5.1878 H       1  UNL1        0.2105
     41 C          20.7500   73.3508    4.3824 C.3     1  UNL1        0.1693
     42 O          21.2707   73.1193    5.6925 O.3     1  UNL1       -0.3794
     43 H          20.5111   72.9842    6.2757 H       1  UNL1        0.2105
@<TRIPOS>BOND
     1    15    16   ar
     2    15    20   ar
     3    15     6    1
     4    16    17   ar
     5    16    21    2
     6    17    18   ar
     7    17    23    1
     8    18    19   ar
     9    18    22    2
    10    19    20   ar
    11     6     7    1
    12     6    11    1
    13     7     8    1
    14     7     9    1
    15     8    13    1
    16     9    10    1
    17     9    12    1
    18    10    11    1
    19    10     5    1
    20    12    14    1
    21     5     4    1
    22     4     1    1
    23     1     2    2
    24     1     3    1
    25     1    24    1
    26    24    25    1
    27    25    26    2
    28    25    27    1
    29    25    28    1
    30    28    29    1
    31    29    30    1
    32    29    37    1
    33    30    31    1
    34    30    34    1
    35    31    32    1
    36    31    35    1
    37    32    33    1
    38    32    36    1
    39    33    41    1
    40    33    37    1
    41    41    42    1
    42    34    38    1
    43    35    39    1
    44    36    40    1
    45    42    43    1
@<TRIPOS>MOLECULE
GDU
 43 45 0 0 0
SMALL
GASTEIGER

@<TRIPOS>ATOM
      1 P          22.4053   72.4678   -3.8321 P.3     1  UNL1        0.2189
      2 O          23.5657   71.8337   -3.1682 O.2     1  UNL1       -0.5170
      3 O          22.7935   72.8417   -5.3495 O.3     1  UNL1       -0.4371
      4 O          21.1625   71.4469   -3.8321 O.3     1  UNL1       -0.3112
      5 C          20.1423   72.0370   -3.0250 C.3     1  UNL1        0.1811
      6 C          18.0054   71.2037   -5.7939 C.3     1  UNL1        0.2383
      7 C          18.0137   69.9292   -4.9116 C.3     1  UNL1        0.1895
      8 O          16.7739   69.2262   -5.0196 O.3     1  UNL1       -0.3779
      9 C          18.1924   70.5202   -3.4889 C.3     1  UNL1        0.1713
     10 C          18.7933   71.9164   -3.7363 C.3     1  UNL1        0.1764
     11 O          18.9748   72.0618   -5.1555 O.3     1  UNL1       -0.3308
     12 O          16.9296   70.6217   -2.8279 O.3     1  UNL1       -0.3794
     13 H          16.8442   68.4476   -4.4497 H       1  UNL1        0.2106
     14 H          16.5783   69.7239   -2.7556 H       1  UNL1        0.2105
     15 N          18.4177   70.8887   -7.1627 N.ar    1  UNL1       -0.2551
     16 C          17.4857   70.6339   -8.0980 C.ar    1  UNL1        0.3323
     17 N          17.8380   70.3451   -9.3646 N.ar    1  UNL1       -0.2743
     18 C          19.1378   70.2970   -9.7148 C.ar    1  UNL1        0.2626
     19 C          20.1306   70.5575   -8.7388 C.ar    1  UNL1        0.0795
     20 C          19.7496   70.8487   -7.4769 C.ar    1  UNL1        0.0869
     21 O          16.3093   70.6741   -7.7972 O.2     1  UNL1       -0.2464
     22 O          19.4577   70.0310  -10.8599 O.2     1  UNL1       -0.2670
     23 H          17.1519   70.1681  -10.0277 H       1  UNL1        0.1734
     24 O          22.0002   73.8084   -3.0375 O.3     1  UNL1       -0.2703
     25 P          23.3249   74.3205   -2.2806 P.3     1  UNL1        0.2208
     26 O          24.5206   73.9238   -3.0566 O.2     1  UNL1       -0.5170
     27 O          23.2802   75.9250   -2.1476 O.3     1  UNL1       -0.4371
     28 O          23.3939   73.6633   -0.8132 O.3     1  UNL1       -0.2858
     29 C          22.0471   73.4311   -0.3988 C.3     1  UNL1        0.2704
     30 C          21.7847   74.1676    0.9157 C.3     1  UNL1        0.1967
     31 C          22.7707   73.6645    1.9745 C.3     1  UNL1        0.1715
     32 C          22.6700   72.1369    2.0514 C.3     1  UNL1        0.1694
     33 C          22.8674   71.5539    0.6499 C.3     1  UNL1        0.1761
     34 O          21.9636   75.5717    0.7216 O.3     1  UNL1       -0.3775
     35 O          22.4441   74.2341    3.2440 O.3     1  UNL1       -0.3794
     36 O          21.3841   71.7674    2.5511 O.3     1  UNL1       -0.3794
     37 O          21.8415   72.0318   -0.2191 O.3     1  UNL1       -0.3258
     38 H          21.3294   75.8427    0.0440 H       1  UNL1        0.2106
     39 H          22.5086   75.1925    3.1456 H       1  UNL1        0.2105
     40 H          21.3019   72.1599    3.4300 H       1  UNL1        0.2105
     41 C          22.8029   70.0266    0.7210 C.3     1  UNL1        0.1693
     42 O          21.4490   69.5999    0.5601 O.3     1  UNL1       -0.3794
     43 H          21.4521   68.6341    0.6102 H       1  UNL1        0.2105
@<TRIPOS>BOND
     1    15    16   ar
     2    15    20   ar
     3    15     6    1
     4    16    17   ar
     5    16    21    2
     6    17    18   ar
     7    17    23    1
     8    18    19   ar
     9    18    22    2
    10    19    20   ar
    11     6     7    1
    12     6    11    1
    13     7     8    1
    14     7     9    1
    15     8    13    1
    16     9    10    1
    17     9    12    1
    18    10    11    1
    19    10     5    1
    20    12    14    1
    21     5     4    1
    22     4     1    1
    23     1     2    2
    24     1     3    1
    25     1    24    1
    26    24    25    1
    27    25    26    2
    28    25    27    1
    29    25    28    1
    30    28    29    1
    31    29    30    1
    32    29    37    1
    33    30    31    1
    34    30    34    1
    35    31    32    1
    36    31    35    1
    37    32    33    1
    38    32    36    1
    39    33    41    1
    40    33    37    1
    41    41    42    1
    42    34    38    1
    43    35    39    1
    44    36    40    1
    45    42    43    1
@<TRIPOS>MOLECULE
GDU
 43 45 0 0 0
SMALL
GASTEIGER

@<TRIPOS>ATOM
      1 P          22.6868   71.9708   -3.0496 P.3     1  UNL1        0.2189
      2 O          22.7389   72.6264   -1.7240 O.2     1  UNL1       -0.5170
      3 O          22.8902   70.3834   -2.8715 O.3     1  UNL1       -0.4371
      4 O          21.2593   72.2555   -3.7337 O.3     1  UNL1       -0.3112
      5 C          20.2736   72.1104   -2.7101 C.3     1  UNL1        0.1811
      6 C          17.9824   71.3200   -5.3659 C.3     1  UNL1        0.2383
      7 C          18.0342   70.0345   -4.5012 C.3     1  UNL1        0.1895
      8 O          16.7872   69.3374   -4.5487 O.3     1  UNL1       -0.3779
      9 C          18.2943   70.6068   -3.0835 C.3     1  UNL1        0.1713
     10 C          18.8866   72.0037   -3.3467 C.3     1  UNL1        0.1764
     11 O          18.9895   72.1664   -4.7719 O.3     1  UNL1       -0.3308
     12 O          17.0706   70.7047   -2.3520 O.3     1  UNL1       -0.3794
     13 H          16.8857   68.5515   -3.9933 H       1  UNL1        0.2106
     14 H          16.7200   69.8073   -2.2713 H       1  UNL1        0.2105
     15 N          18.3166   71.0207   -6.7593 N.ar    1  UNL1       -0.2551
     16 C          17.3362   70.7303   -7.6326 C.ar    1  UNL1        0.3323
     17 N          17.6161   70.4550   -8.9202 N.ar    1  UNL1       -0.2743
     18 C          18.8912   70.4564   -9.3541 C.ar    1  UNL1        0.2626
     19 C          19.9348   70.7549   -8.4441 C.ar    1  UNL1        0.0795
     20 C          19.6258   71.0316   -7.1594 C.ar    1  UNL1        0.0869
     21 O          16.1811   70.7256   -7.2560 O.2     1  UNL1       -0.2464
     22 O          19.1460   70.2027  -10.5182 O.2     1  UNL1       -0.2670
     23 H          16.8956   70.2517   -9.5377 H       1  UNL1        0.1734
     24 O          23.8583   72.5590   -3.9845 O.3     1  UNL1       -0.2703
     25 P          23.4436   74.0685   -4.3580 P.3     1  UNL1        0.2208
     26 O          22.4920   74.5826   -3.3484 O.2     1  UNL1       -0.5170
     27 O          24.7594   74.9973   -4.3763 O.3     1  UNL1       -0.4371
     28 O          22.7513   74.0922   -5.8106 O.3     1  UNL1       -0.2858
     29 C          22.6504   75.4627   -6.1999 C.3     1  UNL1        0.2704
     30 C          21.1944   75.7913   -6.5335 C.3     1  UNL1        0.1967
     31 C          20.7221   74.8718   -7.6639 C.3     1  UNL1        0.1715
     32 C          21.7029   74.9922   -8.8357 C.3     1  UNL1        0.1694
     33 C          23.1212   74.7219   -8.3274 C.3     1  UNL1        0.1761
     34 O          20.3806   75.5874   -5.3770 O.3     1  UNL1       -0.3775
     35 O          19.4144   75.2637   -8.0870 O.3     1  UNL1       -0.3794
     36 O          21.6302   76.3080   -9.3864 O.3     1  UNL1       -0.3794
     37 O          23.4724   75.6922   -7.3419 O.3     1  UNL1       -0.3258
     38 H          20.7175   76.1795   -4.6909 H       1  UNL1        0.2106
     39 H          18.8359   75.1840   -7.3181 H       1  UNL1        0.2105
     40 H          20.7210   76.4356   -9.6873 H       1  UNL1        0.2105
     41 C          24.1049   74.8059   -9.4967 C.3     1  UNL1        0.1693
     42 O          24.4911   73.4876   -9.8888 O.3     1  UNL1       -0.3794
     43 H          25.1088   73.5847  -10.6265 H       1  UNL1        0.2105
@<TRIPOS>BOND
     1    15    16   ar
     2    15    20   ar
     3    15     6    1
     4    16    17   ar
     5    16    21    2
     6    17    18   ar
     7    17    23    1
     8    18    19   ar
     9    18    22    2
    10    19    20   ar
    11     6     7    1
    12     6    11    1
    13     7     8    1
    14     7     9    1
    15     8    13    1
    16     9    10    1
    17     9    12    1
    18    10    11    1
    19    10     5    1
    20    12    14    1
    21     5     4    1
    22     4     1    1
    23     1     2    2
    24     1     3    1
    25     1    24    1
    26    24    25    1
    27    25    26    2
    28    25    27    1
    29    25    28    1
    30    28    29    1
    31    29    30    1
    32    29    37    1
    33    30    31    1
    34    30    34    1
    35    31    32    1
    36    31    35    1
    37    32    33    1
    38    32    36    1
    39    33    41    1
    40    33    37    1
    41    41    42    1
    42    34    38    1
    43    35    39    1
    44    36    40    1
    45    42    43    1
@<TRIPOS>MOLECULE
GDU
 43 45 0 0 0
SMALL
GASTEIGER

@<TRIPOS>ATOM
      1 P          21.7172   70.2966   -0.4147 P.3     1  UNL1        0.2189
      2 O          21.9901   69.1798    0.5168 O.2     1  UNL1       -0.5170
      3 O          23.1095   70.8822   -0.9729 O.3     1  UNL1       -0.4371
      4 O          20.8272   69.7649   -1.6444 O.3     1  UNL1       -0.3112
      5 C          20.9671   70.7181   -2.6990 C.3     1  UNL1        0.1811
      6 C          18.4101   71.0165   -5.2090 C.3     1  UNL1        0.2383
      7 C          18.1096   69.6681   -4.5058 C.3     1  UNL1        0.1895
      8 O          16.7082   69.3870   -4.5196 O.3     1  UNL1       -0.3779
      9 C          18.6055   69.9375   -3.0612 C.3     1  UNL1        0.1713
     10 C          19.5834   71.1171   -3.2151 C.3     1  UNL1        0.1764
     11 O          19.6575   71.4352   -4.6157 O.3     1  UNL1       -0.3308
     12 O          17.5104   70.2939   -2.2154 O.3     1  UNL1       -0.3794
     13 H          16.5894   68.5391   -4.0693 H       1  UNL1        0.2106
     14 H          16.9060   69.5393   -2.2067 H       1  UNL1        0.2105
     15 N          18.5640   70.8250   -6.6521 N.ar    1  UNL1       -0.2551
     16 C          17.4743   70.7801   -7.4388 C.ar    1  UNL1        0.3323
     17 N          17.5883   70.6086   -8.7690 N.ar    1  UNL1       -0.2743
     18 C          18.8025   70.4686   -9.3349 C.ar    1  UNL1        0.2626
     19 C          19.9589   70.5081   -8.5179 C.ar    1  UNL1        0.0795
     20 C          19.8163   70.6855   -7.1873 C.ar    1  UNL1        0.0869
     21 O          16.3723   70.9053   -6.9427 O.2     1  UNL1       -0.2464
     22 O          18.9065   70.3086  -10.5383 O.2     1  UNL1       -0.2670
     23 H          16.7914   70.5829   -9.3221 H       1  UNL1        0.1734
     24 O          20.9204   71.4600    0.3625 O.3     1  UNL1       -0.2703
     25 P          21.9003   72.0058    1.5166 P.3     1  UNL1        0.2208
     26 O          22.7928   70.9135    1.9630 O.2     1  UNL1       -0.5170
     27 O          22.7867   73.2197    0.9378 O.3     1  UNL1       -0.4371
     28 O          21.0254   72.5283    2.7622 O.3     1  UNL1       -0.2858
     29 C          21.3492   73.9069    2.9476 C.3     1  UNL1        0.2704
     30 C          22.2887   74.0526    4.1456 C.3     1  UNL1        0.1967
     31 C          21.5999   73.4866    5.3912 C.3     1  UNL1        0.1715
     32 C          20.2343   74.1652    5.5469 C.3     1  UNL1        0.1694
     33 C          19.4492   74.0090    4.2422 C.3     1  UNL1        0.1761
     34 O          23.4973   73.3325    3.8964 O.3     1  UNL1       -0.3775
     35 O          22.4027   73.7478    6.5444 O.3     1  UNL1       -0.3794
     36 O          20.4198   75.5517    5.8356 O.3     1  UNL1       -0.3794
     37 O          20.1529   74.6475    3.1777 O.3     1  UNL1       -0.3258
     38 H          23.8922   73.7168    3.1019 H       1  UNL1        0.2106
     39 H          23.2527   73.3139    6.3977 H       1  UNL1        0.2105
     40 H          20.9219   75.6013    6.6594 H       1  UNL1        0.2105
     41 C          18.0700   74.6536    4.3986 C.3     1  UNL1        0.1693
     42 O          17.2652   73.8506    5.2637 O.3     1  UNL1       -0.3794
     43 H          16.4071   74.2908    5.3362 H       1  UNL1        0.2105
@<TRIPOS>BOND
     1    15    16   ar
     2    15    20   ar
     3    15     6    1
     4    16    17   ar
     5    16    21    2
     6    17    18   ar
     7    17    23    1
     8    18    19   ar
     9    18    22    2
    10    19    20   ar
    11     6     7    1
    12     6    11    1
    13     7     8    1
    14     7     9    1
    15     8    13    1
    16     9    10    1
    17     9    12    1
    18    10    11    1
    19    10     5    1
    20    12    14    1
    21     5     4    1
    22     4     1    1
    23     1     2    2
    24     1     3    1
    25     1    24    1
    26    24    25    1
    27    25    26    2
    28    25    27    1
    29    25    28    1
    30    28    29    1
    31    29    30    1
    32    29    37    1
    33    30    31    1
    34    30    34    1
    35    31    32    1
    36    31    35    1
    37    32    33    1
    38    32    36    1
    39    33    41    1
    40    33    37    1
    41    41    42    1
    42    34    38    1
    43    35    39    1
    44    36    40    1
    45    42    43    1
@<TRIPOS>MOLECULE
GDU
 43 45 0 0 0
SMALL
GASTEIGER

@<TRIPOS>ATOM
      1 P          21.5837   70.7301   -0.3470 P.3     1  UNL1        0.2189
      2 O          21.7711   69.8865    0.8542 O.2     1  UNL1       -0.5170
      3 O          23.0210   71.1095   -0.9659 O.3     1  UNL1       -0.4371
      4 O          20.7244   69.9231   -1.4412 O.3     1  UNL1       -0.3112
      5 C          20.8917   70.6062   -2.6846 C.3     1  UNL1        0.1811
      6 C          18.3799   70.9958   -5.2275 C.3     1  UNL1        0.2383
      7 C          18.0372   69.6466   -4.5456 C.3     1  UNL1        0.1895
      8 O          16.6299   69.3991   -4.5832 O.3     1  UNL1       -0.3779
      9 C          18.5179   69.8865   -3.0907 C.3     1  UNL1        0.1713
     10 C          19.5256   71.0443   -3.2157 C.3     1  UNL1        0.1764
     11 O          19.6280   71.3775   -4.6109 O.3     1  UNL1       -0.3308
     12 O          17.4191   70.2586   -2.2565 O.3     1  UNL1       -0.3794
     13 H          16.4844   68.5489   -4.1453 H       1  UNL1        0.2106
     14 H          16.7970   69.5186   -2.2660 H       1  UNL1        0.2105
     15 N          18.5506   70.8183   -6.6705 N.ar    1  UNL1       -0.2551
     16 C          17.4698   70.7755   -7.4695 C.ar    1  UNL1        0.3323
     17 N          17.5993   70.6167   -8.7999 N.ar    1  UNL1       -0.2743
     18 C          18.8203   70.4876   -9.3536 C.ar    1  UNL1        0.2626
     19 C          19.9674   70.5250   -8.5236 C.ar    1  UNL1        0.0795
     20 C          19.8093   70.6896   -7.1930 C.ar    1  UNL1        0.0869
     21 O          16.3619   70.8911   -6.9845 O.2     1  UNL1       -0.2464
     22 O          18.9383   70.3390  -10.5572 O.2     1  UNL1       -0.2670
     23 H          16.8086   70.5924   -9.3620 H       1  UNL1        0.1734
     24 O          20.8041   72.0783    0.0616 O.3     1  UNL1       -0.2703
     25 P          21.9070   73.2471    0.1481 P.3     1  UNL1        0.2208
     26 O          23.2542   72.6696   -0.0536 O.2     1  UNL1       -0.5170
     27 O          21.6172   74.3438   -0.9953 O.3     1  UNL1       -0.4371
     28 O          21.8341   73.9493    1.5943 O.3     1  UNL1       -0.2858
     29 C          22.6878   73.2021    2.4619 C.3     1  UNL1        0.2704
     30 C          21.8674   72.6422    3.6250 C.3     1  UNL1        0.1967
     31 C          21.2135   73.8043    4.3789 C.3     1  UNL1        0.1715
     32 C          22.3032   74.8078    4.7728 C.3     1  UNL1        0.1694
     33 C          23.0898   75.2052    3.5213 C.3     1  UNL1        0.1761
     34 O          20.8564   71.7679    3.1204 O.3     1  UNL1       -0.3775
     35 O          20.5650   73.3107    5.5529 O.3     1  UNL1       -0.3794
     36 O          23.1826   74.2087    5.7256 O.3     1  UNL1       -0.3794
     37 O          23.7173   74.0527    2.9610 O.3     1  UNL1       -0.3258
     38 H          21.3120   71.0575    2.6486 H       1  UNL1        0.2106
     39 H          19.8986   72.6768    5.2589 H       1  UNL1        0.2105
     40 H          22.6447   73.9702    6.4917 H       1  UNL1        0.2105
     41 C          24.1588   76.2335    3.8980 C.3     1  UNL1        0.1693
     42 O          25.3234   75.5562    4.3735 O.3     1  UNL1       -0.3794
     43 H          25.9712   76.2380    4.5988 H       1  UNL1        0.2105
@<TRIPOS>BOND
     1    15    16   ar
     2    15    20   ar
     3    15     6    1
     4    16    17   ar
     5    16    21    2
     6    17    18   ar
     7    17    23    1
     8    18    19   ar
     9    18    22    2
    10    19    20   ar
    11     6     7    1
    12     6    11    1
    13     7     8    1
    14     7     9    1
    15     8    13    1
    16     9    10    1
    17     9    12    1
    18    10    11    1
    19    10     5    1
    20    12    14    1
    21     5     4    1
    22     4     1    1
    23     1     2    2
    24     1     3    1
    25     1    24    1
    26    24    25    1
    27    25    26    2
    28    25    27    1
    29    25    28    1
    30    28    29    1
    31    29    30    1
    32    29    37    1
    33    30    31    1
    34    30    34    1
    35    31    32    1
    36    31    35    1
    37    32    33    1
    38    32    36    1
    39    33    41    1
    40    33    37    1
    41    41    42    1
    42    34    38    1
    43    35    39    1
    44    36    40    1
    45    42    43    1
@<TRIPOS>MOLECULE
GDU
 43 45 0 0 0
SMALL
GASTEIGER

@<TRIPOS>ATOM
      1 P          22.1239   73.9617   -6.7399 P.3     1  UNL1        0.2189
      2 O          22.8179   72.6791   -6.9901 O.2     1  UNL1       -0.5170
      3 O          23.2040   75.1549   -6.6872 O.3     1  UNL1       -0.4371
      4 O          21.0714   74.2426   -7.9232 O.3     1  UNL1       -0.3112
      5 C          21.3343   73.2822   -8.9475 C.3     1  UNL1        0.1811
      6 C          18.6656   71.2240   -7.6946 C.3     1  UNL1        0.2383
      7 C          18.0137   72.6124   -7.9192 C.3     1  UNL1        0.1895
      8 O          16.6324   72.4777   -8.2616 O.3     1  UNL1       -0.3779
      9 C          18.8293   73.1643   -9.1173 C.3     1  UNL1        0.1713
     10 C          20.1333   72.3456   -9.0912 C.3     1  UNL1        0.1764
     11 O          20.0646   71.4621   -7.9585 O.3     1  UNL1       -0.3308
     12 O          18.1231   72.9540  -10.3416 O.3     1  UNL1       -0.3794
     13 H          16.2877   73.3728   -8.3870 H       1  UNL1        0.2106
     14 H          17.2918   73.4428  -10.2729 H       1  UNL1        0.2105
     15 N          18.4699   70.7770   -6.3145 N.ar    1  UNL1       -0.2551
     16 C          17.3446   70.1216   -5.9791 C.ar    1  UNL1        0.3323
     17 N          17.1415   69.6968   -4.7181 N.ar    1  UNL1       -0.2743
     18 C          18.0635   69.9317   -3.7646 C.ar    1  UNL1        0.2626
     19 C          19.2510   70.6260   -4.1021 C.ar    1  UNL1        0.0795
     20 C          19.4312   71.0372   -5.3753 C.ar    1  UNL1        0.0869
     21 O          16.5041   69.9019   -6.8284 O.2     1  UNL1       -0.2464
     22 O          17.8784   69.5518   -2.6219 O.2     1  UNL1       -0.2670
     23 H          16.3255   69.2215   -4.4947 H       1  UNL1        0.1734
     24 O          21.3438   73.8833   -5.3336 O.3     1  UNL1       -0.2703
     25 P          22.4599   73.6837   -4.1914 P.3     1  UNL1        0.2208
     26 O          23.4844   72.7269   -4.6650 O.2     1  UNL1       -0.5170
     27 O          23.1569   75.0996   -3.8693 O.3     1  UNL1       -0.4371
     28 O          21.7667   73.1121   -2.8562 O.3     1  UNL1       -0.2858
     29 C          22.8212   72.7497   -1.9638 C.3     1  UNL1        0.2704
     30 C          22.6365   71.2976   -1.5203 C.3     1  UNL1        0.1967
     31 C          21.2744   71.1552   -0.8343 C.3     1  UNL1        0.1715
     32 C          21.1789   72.1966    0.2864 C.3     1  UNL1        0.1694
     33 C          21.4724   73.5818   -0.2950 C.3     1  UNL1        0.1761
     34 O          22.6921   70.4383   -2.6604 O.3     1  UNL1       -0.3775
     35 O          21.1486   69.8420   -0.2846 O.3     1  UNL1       -0.3794
     36 O          22.1306   71.8897    1.3063 O.3     1  UNL1       -0.3794
     37 O          22.7961   73.6099   -0.8271 O.3     1  UNL1       -0.3258
     38 H          23.5614   70.5659   -3.0639 H       1  UNL1        0.2106
     39 H          21.2264   69.2219   -1.0207 H       1  UNL1        0.2105
     40 H          21.9111   71.0094    1.6382 H       1  UNL1        0.2105
     41 C          21.3460   74.6338    0.8093 C.3     1  UNL1        0.1693
     42 O          20.4123   74.1821    1.7917 O.3     1  UNL1       -0.3794
     43 H          20.3624   74.8713    2.4682 H       1  UNL1        0.2105
@<TRIPOS>BOND
     1    15    16   ar
     2    15    20   ar
     3    15     6    1
     4    16    17   ar
     5    16    21    2
     6    17    18   ar
     7    17    23    1
     8    18    19   ar
     9    18    22    2
    10    19    20   ar
    11     6     7    1
    12     6    11    1
    13     7     8    1
    14     7     9    1
    15     8    13    1
    16     9    10    1
    17     9    12    1
    18    10    11    1
    19    10     5    1
    20    12    14    1
    21     5     4    1
    22     4     1    1
    23     1     2    2
    24     1     3    1
    25     1    24    1
    26    24    25    1
    27    25    26    2
    28    25    27    1
    29    25    28    1
    30    28    29    1
    31    29    30    1
    32    29    37    1
    33    30    31    1
    34    30    34    1
    35    31    32    1
    36    31    35    1
    37    32    33    1
    38    32    36    1
    39    33    41    1
    40    33    37    1
    41    41    42    1
    42    34    38    1
    43    35    39    1
    44    36    40    1
    45    42    43    1
@<TRIPOS>MOLECULE
GDU
 43 45 0 0 0
SMALL
GASTEIGER

@<TRIPOS>ATOM
      1 P          20.9425   72.6271   -2.3911 P.3     1  UNL1        0.2189
      2 O          20.4037   72.6831   -1.0141 O.2     1  UNL1       -0.5170
      3 O          21.0651   71.0906   -2.8572 O.3     1  UNL1       -0.4371
      4 O          19.9538   73.4127   -3.3871 O.3     1  UNL1       -0.3112
      5 C          18.7430   73.6491   -2.6670 C.3     1  UNL1        0.1811
      6 C          17.2433   71.7605   -5.3337 C.3     1  UNL1        0.2383
      7 C          17.6575   70.6946   -4.2871 C.3     1  UNL1        0.1895
      8 O          16.7689   69.5754   -4.3201 O.3     1  UNL1       -0.3779
      9 C          17.5147   71.4751   -2.9545 C.3     1  UNL1        0.1713
     10 C          17.5806   72.9542   -3.3782 C.3     1  UNL1        0.1764
     11 O          17.7893   72.9858   -4.8008 O.3     1  UNL1       -0.3308
     12 O          16.2612   71.1806   -2.3349 O.3     1  UNL1       -0.3794
     13 H          17.0805   68.9521   -3.6491 H       1  UNL1        0.2106
     14 H          16.2573   70.2321   -2.1478 H       1  UNL1        0.2105
     15 N          17.8310   71.4593   -6.6401 N.ar    1  UNL1       -0.2551
     16 C          17.1317   70.7406   -7.5362 C.ar    1  UNL1        0.3323
     17 N          17.6475   70.4529   -8.7457 N.ar    1  UNL1       -0.2743
     18 C          18.8835   70.8744   -9.0756 C.ar    1  UNL1        0.2626
     19 C          19.6340   71.6274   -8.1397 C.ar    1  UNL1        0.0795
     20 C          19.0911   71.9056   -6.9353 C.ar    1  UNL1        0.0869
     21 O          16.0153   70.3539   -7.2530 O.2     1  UNL1       -0.2464
     22 O          19.3531   70.6104  -10.1684 O.2     1  UNL1       -0.2670
     23 H          17.1271   69.9367   -9.3817 H       1  UNL1        0.1734
     24 O          22.3981   73.3145   -2.4251 O.3     1  UNL1       -0.2703
     25 P          23.1366   72.7781   -3.7507 P.3     1  UNL1        0.2208
     26 O          23.5386   71.3678   -3.5547 O.2     1  UNL1       -0.5170
     27 O          22.1298   72.8794   -5.0038 O.3     1  UNL1       -0.4371
     28 O          24.4419   73.6742   -4.0389 O.3     1  UNL1       -0.2858
     29 C          24.4431   74.7279   -3.0748 C.3     1  UNL1        0.2704
     30 C          23.9184   76.0106   -3.7218 C.3     1  UNL1        0.1967
     31 C          24.8103   76.3681   -4.9148 C.3     1  UNL1        0.1715
     32 C          26.2660   76.4261   -4.4384 C.3     1  UNL1        0.1694
     33 C          26.6134   75.1100   -3.7382 C.3     1  UNL1        0.1761
     34 O          22.5770   75.8069   -4.1692 O.3     1  UNL1       -0.3775
     35 O          24.4232   77.6399   -5.4395 O.3     1  UNL1       -0.3794
     36 O          26.4278   77.5145   -3.5278 O.3     1  UNL1       -0.3794
     37 O          25.7715   74.9336   -2.5998 O.3     1  UNL1       -0.3258
     38 H          22.0543   75.5777   -3.3887 H       1  UNL1        0.2106
     39 H          23.5011   77.5603   -5.7146 H       1  UNL1        0.2105
     40 H          26.1933   78.3190   -4.0087 H       1  UNL1        0.2105
     41 C          28.0759   75.1441   -3.2886 C.3     1  UNL1        0.1693
     42 O          28.8178   74.1582   -4.0088 O.3     1  UNL1       -0.3794
     43 H          29.7317   74.2128   -3.6973 H       1  UNL1        0.2105
@<TRIPOS>BOND
     1    15    16   ar
     2    15    20   ar
     3    15     6    1
     4    16    17   ar
     5    16    21    2
     6    17    18   ar
     7    17    23    1
     8    18    19   ar
     9    18    22    2
    10    19    20   ar
    11     6     7    1
    12     6    11    1
    13     7     8    1
    14     7     9    1
    15     8    13    1
    16     9    10    1
    17     9    12    1
    18    10    11    1
    19    10     5    1
    20    12    14    1
    21     5     4    1
    22     4     1    1
    23     1     2    2
    24     1     3    1
    25     1    24    1
    26    24    25    1
    27    25    26    2
    28    25    27    1
    29    25    28    1
    30    28    29    1
    31    29    30    1
    32    29    37    1
    33    30    31    1
    34    30    34    1
    35    31    32    1
    36    31    35    1
    37    32    33    1
    38    32    36    1
    39    33    41    1
    40    33    37    1
    41    41    42    1
    42    34    38    1
    43    35    39    1
    44    36    40    1
    45    42    43    1
@<TRIPOS>MOLECULE
GDU
 43 45 0 0 0
SMALL
GASTEIGER

@<TRIPOS>ATOM
      1 P          22.7498   74.0275   -3.6961 P.3     1  UNL1        0.2189
      2 O          23.3937   75.2390   -3.1418 O.2     1  UNL1       -0.5170
      3 O          23.8818   72.9582   -4.1063 O.3     1  UNL1       -0.4371
      4 O          21.7778   73.3818   -2.5892 O.3     1  UNL1       -0.3112
      5 C          22.0832   74.0192   -1.3479 C.3     1  UNL1        0.1811
      6 C          23.0875   72.4845    1.7446 C.3     1  UNL1        0.2383
      7 C          22.0453   71.5060    1.1451 C.3     1  UNL1        0.1895
      8 O          22.3328   70.1586    1.5259 O.3     1  UNL1       -0.3779
      9 C          22.2511   71.7060   -0.3790 C.3     1  UNL1        0.1713
     10 C          22.9330   73.0826   -0.4872 C.3     1  UNL1        0.1764
     11 O          23.0472   73.6125    0.8449 O.3     1  UNL1       -0.3308
     12 O          23.0933   70.6801   -0.9083 O.3     1  UNL1       -0.3794
     13 H          21.6509   69.6033    1.1227 H       1  UNL1        0.2106
     14 H          22.6394   69.8398   -0.7580 H       1  UNL1        0.2105
     15 N          22.6999   72.8893    3.0969 N.ar    1  UNL1       -0.2551
     16 C          21.4414   72.6786    3.5212 C.ar    1  UNL1        0.3323
     17 N          21.0603   73.0381    4.7611 N.ar    1  UNL1       -0.2743
     18 C          21.9362   73.6271    5.5977 C.ar    1  UNL1        0.2626
     19 C          23.2637   73.8605    5.1625 C.ar    1  UNL1        0.0795
     20 C          23.6207   73.4862    3.9155 C.ar    1  UNL1        0.0869
     21 O          20.6402   72.1478    2.7779 O.2     1  UNL1       -0.2464
     22 O          21.5909   73.9572    6.7186 O.2     1  UNL1       -0.2670
     23 H          20.1491   72.8745    5.0521 H       1  UNL1        0.1734
     24 O          21.8919   74.4253   -4.9992 O.3     1  UNL1       -0.2703
     25 P          21.5907   73.0591   -5.7945 P.3     1  UNL1        0.2208
     26 O          22.7234   72.7533   -6.6960 O.2     1  UNL1       -0.5170
     27 O          21.4039   71.8551   -4.7411 O.3     1  UNL1       -0.4371
     28 O          20.2446   73.2265   -6.6605 O.3     1  UNL1       -0.2858
     29 C          19.6591   71.9286   -6.7726 C.3     1  UNL1        0.2704
     30 C          19.5828   71.5302   -8.2473 C.3     1  UNL1        0.1967
     31 C          18.7458   72.5680   -9.0015 C.3     1  UNL1        0.1715
     32 C          17.3936   72.7146   -8.2946 C.3     1  UNL1        0.1694
     33 C          17.6363   73.0254   -6.8155 C.3     1  UNL1        0.1761
     34 O          20.8998   71.4826   -8.7990 O.3     1  UNL1       -0.3775
     35 O          18.5419   72.1338  -10.3477 O.3     1  UNL1       -0.3794
     36 O          16.6560   71.4977   -8.4172 O.3     1  UNL1       -0.3794
     37 O          18.3500   71.9494   -6.2083 O.3     1  UNL1       -0.3258
     38 H          21.3917   70.8236   -8.2905 H       1  UNL1        0.2106
     39 H          19.4159   72.0440  -10.7482 H       1  UNL1        0.2105
     40 H          16.5322   71.3395   -9.3622 H       1  UNL1        0.2105
     41 C          16.2921   73.2077   -6.1072 C.3     1  UNL1        0.1693
     42 O          15.8823   71.9634   -5.5373 O.3     1  UNL1       -0.3794
     43 H          15.0338   72.1213   -5.1010 H       1  UNL1        0.2105
@<TRIPOS>BOND
     1    15    16   ar
     2    15    20   ar
     3    15     6    1
     4    16    17   ar
     5    16    21    2
     6    17    18   ar
     7    17    23    1
     8    18    19   ar
     9    18    22    2
    10    19    20   ar
    11     6     7    1
    12     6    11    1
    13     7     8    1
    14     7     9    1
    15     8    13    1
    16     9    10    1
    17     9    12    1
    18    10    11    1
    19    10     5    1
    20    12    14    1
    21     5     4    1
    22     4     1    1
    23     1     2    2
    24     1     3    1
    25     1    24    1
    26    24    25    1
    27    25    26    2
    28    25    27    1
    29    25    28    1
    30    28    29    1
    31    29    30    1
    32    29    37    1
    33    30    31    1
    34    30    34    1
    35    31    32    1
    36    31    35    1
    37    32    33    1
    38    32    36    1
    39    33    41    1
    40    33    37    1
    41    41    42    1
    42    34    38    1
    43    35    39    1
    44    36    40    1
    45    42    43    1
@<TRIPOS>MOLECULE
GDU
 43 45 0 0 0
SMALL
GASTEIGER

@<TRIPOS>ATOM
      1 P          20.5913   74.4140   -8.0788 P.3     1  UNL1        0.2189
      2 O          21.6615   74.9187   -8.9674 O.2     1  UNL1       -0.5170
      3 O          19.1855   75.0748   -8.5030 O.3     1  UNL1       -0.4371
      4 O          20.4938   72.8141   -8.2107 O.3     1  UNL1       -0.3112
      5 C          19.4171   72.5377   -9.1079 C.3     1  UNL1        0.1811
      6 C          18.0826   70.6639   -6.3447 C.3     1  UNL1        0.2383
      7 C          17.2648   71.9808   -6.3530 C.3     1  UNL1        0.1895
      8 O          15.9402   71.7616   -5.8623 O.3     1  UNL1       -0.3779
      9 C          17.2434   72.3405   -7.8614 C.3     1  UNL1        0.1713
     10 C          18.4378   71.5653   -8.4480 C.3     1  UNL1        0.1764
     11 O          19.0851   70.8836   -7.3597 O.3     1  UNL1       -0.3308
     12 O          16.0183   71.9126   -8.4597 O.3     1  UNL1       -0.3794
     13 H          15.4866   72.6154   -5.8931 H       1  UNL1        0.2106
     14 H          15.3062   72.3884   -8.0110 H       1  UNL1        0.2105
     15 N          18.7087   70.4513   -5.0387 N.ar    1  UNL1       -0.2551
     16 C          18.0894   69.6916   -4.1181 C.ar    1  UNL1        0.3323
     17 N          18.6452   69.4774   -2.9109 N.ar    1  UNL1       -0.2743
     18 C          19.8328   70.0322   -2.6010 C.ar    1  UNL1        0.2626
     19 C          20.4939   70.8395   -3.5588 C.ar    1  UNL1        0.0795
     20 C          19.9162   71.0345   -4.7633 C.ar    1  UNL1        0.0869
     21 O          17.0179   69.1841   -4.3833 O.2     1  UNL1       -0.2464
     22 O          20.3343   69.8428   -1.5069 O.2     1  UNL1       -0.2670
     23 H          18.1862   68.9228   -2.2601 H       1  UNL1        0.1734
     24 O          20.9300   74.8085   -6.5549 O.3     1  UNL1       -0.2703
     25 P          22.4651   74.3998   -6.2972 P.3     1  UNL1        0.2208
     26 O          22.5717   72.9282   -6.1876 O.2     1  UNL1       -0.5170
     27 O          23.3704   74.9129   -7.5266 O.3     1  UNL1       -0.4371
     28 O          22.9806   75.0794   -4.9325 O.3     1  UNL1       -0.2858
     29 C          23.2489   74.0176   -4.0158 C.3     1  UNL1        0.2704
     30 C          22.5167   74.2840   -2.6996 C.3     1  UNL1        0.1967
     31 C          22.9898   75.6243   -2.1284 C.3     1  UNL1        0.1715
     32 C          24.5195   75.6029   -2.0311 C.3     1  UNL1        0.1694
     33 C          25.1002   75.2381   -3.3996 C.3     1  UNL1        0.1761
     34 O          21.1087   74.3334   -2.9367 O.3     1  UNL1       -0.3775
     35 O          22.4264   75.8182   -0.8294 O.3     1  UNL1       -0.3794
     36 O          24.9232   74.6347   -1.0619 O.3     1  UNL1       -0.3794
     37 O          24.6529   73.9380   -3.7812 O.3     1  UNL1       -0.3258
     38 H          20.8570   73.4741   -3.3016 H       1  UNL1        0.2106
     39 H          21.4669   75.8127   -0.9368 H       1  UNL1        0.2105
     40 H          24.5309   74.9009   -0.2201 H       1  UNL1        0.2105
     41 C          26.6285   75.2476   -3.3221 C.3     1  UNL1        0.1693
     42 O          27.1642   74.4821   -4.4030 O.3     1  UNL1       -0.3794
     43 H          28.1270   74.5139   -4.3183 H       1  UNL1        0.2105
@<TRIPOS>BOND
     1    15    16   ar
     2    15    20   ar
     3    15     6    1
     4    16    17   ar
     5    16    21    2
     6    17    18   ar
     7    17    23    1
     8    18    19   ar
     9    18    22    2
    10    19    20   ar
    11     6     7    1
    12     6    11    1
    13     7     8    1
    14     7     9    1
    15     8    13    1
    16     9    10    1
    17     9    12    1
    18    10    11    1
    19    10     5    1
    20    12    14    1
    21     5     4    1
    22     4     1    1
    23     1     2    2
    24     1     3    1
    25     1    24    1
    26    24    25    1
    27    25    26    2
    28    25    27    1
    29    25    28    1
    30    28    29    1
    31    29    30    1
    32    29    37    1
    33    30    31    1
    34    30    34    1
    35    31    32    1
    36    31    35    1
    37    32    33    1
    38    32    36    1
    39    33    41    1
    40    33    37    1
    41    41    42    1
    42    34    38    1
    43    35    39    1
    44    36    40    1
    45    42    43    1
@<TRIPOS>MOLECULE
GDU
 43 45 0 0 0
SMALL
GASTEIGER

@<TRIPOS>ATOM
      1 P          21.7859   70.8986   -2.6773 P.3     1  UNL1        0.2189
      2 O          20.6958   71.7958   -2.2341 O.2     1  UNL1       -0.5170
      3 O          21.2087   69.4078   -2.8703 O.3     1  UNL1       -0.4371
      4 O          22.3827   71.4279   -4.0739 O.3     1  UNL1       -0.3112
      5 C          21.4838   72.4281   -4.5556 C.3     1  UNL1        0.1811
      6 C          19.6824   72.7426   -7.6513 C.3     1  UNL1        0.2383
      7 C          20.5424   74.0296   -7.5691 C.3     1  UNL1        0.1895
      8 O          20.9039   74.4857   -8.8747 O.3     1  UNL1       -0.3779
      9 C          21.7899   73.5375   -6.7901 C.3     1  UNL1        0.1713
     10 C          21.3026   72.2687   -6.0662 C.3     1  UNL1        0.1764
     11 O          19.9079   72.1047   -6.3763 O.3     1  UNL1       -0.3308
     12 O          22.8534   73.2290   -7.6934 O.3     1  UNL1       -0.3794
     13 H          21.4348   75.2852   -8.7538 H       1  UNL1        0.2106
     14 H          23.0731   74.0482   -8.1575 H       1  UNL1        0.2105
     15 N          18.2667   73.0755   -7.8182 N.ar    1  UNL1       -0.2551
     16 C          17.7672   73.2649   -9.0522 C.ar    1  UNL1        0.3323
     17 N          16.4683   73.5684   -9.2334 N.ar    1  UNL1       -0.2743
     18 C          15.6461   73.6975   -8.1745 C.ar    1  UNL1        0.2626
     19 C          16.1596   73.5064   -6.8684 C.ar    1  UNL1        0.0795
     20 C          17.4651   73.1987   -6.7153 C.ar    1  UNL1        0.0869
     21 O          18.4966   73.1514  -10.0172 O.2     1  UNL1       -0.2464
     22 O          14.4713   73.9768   -8.3373 O.2     1  UNL1       -0.2670
     23 H          16.1238   73.6975  -10.1315 H       1  UNL1        0.1734
     24 O          22.9510   70.8819   -1.5662 O.3     1  UNL1       -0.2703
     25 P          22.2513   70.5244   -0.1617 P.3     1  UNL1        0.2208
     26 O          20.7876   70.4219   -0.3520 O.2     1  UNL1       -0.5170
     27 O          22.8214   69.1185    0.3792 O.3     1  UNL1       -0.4371
     28 O          22.5744   71.6810    0.9098 O.3     1  UNL1       -0.2858
     29 C          21.5653   72.6803    0.7586 C.3     1  UNL1        0.2704
     30 C          22.2054   73.9801    0.2683 C.3     1  UNL1        0.1967
     31 C          23.2630   74.4283    1.2817 C.3     1  UNL1        0.1715
     32 C          22.6127   74.5038    2.6677 C.3     1  UNL1        0.1694
     33 C          21.9430   73.1626    2.9770 C.3     1  UNL1        0.1761
     34 O          22.8204   73.7611   -1.0025 O.3     1  UNL1       -0.3775
     35 O          23.7657   75.7146    0.9139 O.3     1  UNL1       -0.3794
     36 O          21.6356   75.5455    2.6810 O.3     1  UNL1       -0.3794
     37 O          20.9244   72.8995    2.0131 O.3     1  UNL1       -0.3258
     38 H          22.1209   73.4743   -1.6053 H       1  UNL1        0.2106
     39 H          24.1532   75.6225    0.0343 H       1  UNL1        0.2105
     40 H          22.1000   76.3675    2.4762 H       1  UNL1        0.2105
     41 C          21.3197   73.2158    4.3737 C.3     1  UNL1        0.1693
     42 O          22.0922   72.4152    5.2700 O.3     1  UNL1       -0.3794
     43 H          21.6675   72.4762    6.1367 H       1  UNL1        0.2105
@<TRIPOS>BOND
     1    15    16   ar
     2    15    20   ar
     3    15     6    1
     4    16    17   ar
     5    16    21    2
     6    17    18   ar
     7    17    23    1
     8    18    19   ar
     9    18    22    2
    10    19    20   ar
    11     6     7    1
    12     6    11    1
    13     7     8    1
    14     7     9    1
    15     8    13    1
    16     9    10    1
    17     9    12    1
    18    10    11    1
    19    10     5    1
    20    12    14    1
    21     5     4    1
    22     4     1    1
    23     1     2    2
    24     1     3    1
    25     1    24    1
    26    24    25    1
    27    25    26    2
    28    25    27    1
    29    25    28    1
    30    28    29    1
    31    29    30    1
    32    29    37    1
    33    30    31    1
    34    30    34    1
    35    31    32    1
    36    31    35    1
    37    32    33    1
    38    32    36    1
    39    33    41    1
    40    33    37    1
    41    41    42    1
    42    34    38    1
    43    35    39    1
    44    36    40    1
    45    42    43    1
@<TRIPOS>MOLECULE
GDU
 43 45 0 0 0
SMALL
GASTEIGER

@<TRIPOS>ATOM
      1 P          23.1716   74.8857   -4.6188 P.3     1  UNL1        0.2189
      2 O          23.6289   75.3679   -5.9409 O.2     1  UNL1       -0.5170
      3 O          24.0494   73.6089   -4.1803 O.3     1  UNL1       -0.4371
      4 O          23.3465   76.0566   -3.5302 O.3     1  UNL1       -0.3112
      5 C          22.0452   76.3384   -3.0128 C.3     1  UNL1        0.1811
      6 C          22.3178   74.3570   -0.0250 C.3     1  UNL1        0.2383
      7 C          23.7487   74.9046   -0.2606 C.3     1  UNL1        0.1895
      8 O          24.4360   75.0856    0.9796 O.3     1  UNL1       -0.3779
      9 C          23.4663   76.2695   -0.9407 C.3     1  UNL1        0.1713
     10 C          22.0385   76.1214   -1.4985 C.3     1  UNL1        0.1764
     11 O          21.5952   74.7866   -1.1984 O.3     1  UNL1       -0.3308
     12 O          23.5289   77.3277    0.0175 O.3     1  UNL1       -0.3794
     13 H          25.3154   75.4261    0.7639 H       1  UNL1        0.2106
     14 H          24.4282   77.3312    0.3725 H       1  UNL1        0.2105
     15 N          22.3308   72.8960    0.0664 N.ar    1  UNL1       -0.2551
     16 C          22.3995   72.3039    1.2718 C.ar    1  UNL1        0.3323
     17 N          22.4095   70.9626    1.3838 N.ar    1  UNL1       -0.2743
     18 C          22.3605   70.1880    0.2830 C.ar    1  UNL1        0.2626
     19 C          22.2937   70.7978   -0.9936 C.ar    1  UNL1        0.0795
     20 C          22.2808   72.1452   -1.0772 C.ar    1  UNL1        0.0869
     21 O          22.4438   72.9896    2.2738 O.2     1  UNL1       -0.2464
     22 O          22.3743   68.9737    0.3831 O.2     1  UNL1       -0.2670
     23 H          22.4551   70.5521    2.2620 H       1  UNL1        0.1734
     24 O          21.6206   74.4631   -4.7098 O.3     1  UNL1       -0.2703
     25 P          21.5612   73.0798   -5.5301 P.3     1  UNL1        0.2208
     26 O          22.7680   72.9567   -6.3773 O.2     1  UNL1       -0.5170
     27 O          21.5034   71.8456   -4.4968 O.3     1  UNL1       -0.4371
     28 O          20.2476   73.0617   -6.4596 O.3     1  UNL1       -0.2858
     29 C          20.0237   71.7021   -6.8352 C.3     1  UNL1        0.2704
     30 C          19.9652   71.5981   -8.3601 C.3     1  UNL1        0.1967
     31 C          18.8368   72.4952   -8.8780 C.3     1  UNL1        0.1715
     32 C          17.5409   72.1231   -8.1487 C.3     1  UNL1        0.1694
     33 C          17.7830   72.1893   -6.6387 C.3     1  UNL1        0.1761
     34 O          21.2104   72.0231   -8.9169 O.3     1  UNL1       -0.3775
     35 O          18.6731   72.2973  -10.2839 O.3     1  UNL1       -0.3794
     36 O          17.1483   70.8001   -8.5170 O.3     1  UNL1       -0.3794
     37 O          18.7940   71.2516   -6.2718 O.3     1  UNL1       -0.3258
     38 H          21.8908   71.4368   -8.5588 H       1  UNL1        0.2106
     39 H          19.5129   72.5313  -10.6991 H       1  UNL1        0.2105
     40 H          17.0130   70.8045   -9.4736 H       1  UNL1        0.2105
     41 C          16.4854   71.8526   -5.9007 C.3     1  UNL1        0.1693
     42 O          16.4000   70.4394   -5.7094 O.3     1  UNL1       -0.3794
     43 H          15.5708   70.2699   -5.2415 H       1  UNL1        0.2105
@<TRIPOS>BOND
     1    15    16   ar
     2    15    20   ar
     3    15     6    1
     4    16    17   ar
     5    16    21    2
     6    17    18   ar
     7    17    23    1
     8    18    19   ar
     9    18    22    2
    10    19    20   ar
    11     6     7    1
    12     6    11    1
    13     7     8    1
    14     7     9    1
    15     8    13    1
    16     9    10    1
    17     9    12    1
    18    10    11    1
    19    10     5    1
    20    12    14    1
    21     5     4    1
    22     4     1    1
    23     1     2    2
    24     1     3    1
    25     1    24    1
    26    24    25    1
    27    25    26    2
    28    25    27    1
    29    25    28    1
    30    28    29    1
    31    29    30    1
    32    29    37    1
    33    30    31    1
    34    30    34    1
    35    31    32    1
    36    31    35    1
    37    32    33    1
    38    32    36    1
    39    33    41    1
    40    33    37    1
    41    41    42    1
    42    34    38    1
    43    35    39    1
    44    36    40    1
    45    42    43    1
@<TRIPOS>MOLECULE
GDU
 43 45 0 0 0
SMALL
GASTEIGER

@<TRIPOS>ATOM
      1 P          22.7948   72.0850   -3.5812 P.3     1  UNL1        0.2189
      2 O          23.8102   72.9446   -4.2290 O.2     1  UNL1       -0.5170
      3 O          23.4532   70.6631   -3.2104 O.3     1  UNL1       -0.4371
      4 O          22.2649   72.7971   -2.2399 O.3     1  UNL1       -0.3112
      5 C          22.0851   71.7663   -1.2675 C.3     1  UNL1        0.1811
      6 C          21.2942   73.4085    1.8316 C.3     1  UNL1        0.2383
      7 C          21.1300   74.5108    0.7542 C.3     1  UNL1        0.1895
      8 O          20.1275   75.4544    1.1387 O.3     1  UNL1       -0.3779
      9 C          20.6740   73.6920   -0.4815 C.3     1  UNL1        0.1713
     10 C          21.1377   72.2566   -0.1712 C.3     1  UNL1        0.1764
     11 O          21.8266   72.2899    1.0908 O.3     1  UNL1       -0.3308
     12 O          19.2528   73.7468   -0.6203 O.3     1  UNL1       -0.3794
     13 H          20.0752   76.1103    0.4296 H       1  UNL1        0.2106
     14 H          19.0200   74.6757   -0.7530 H       1  UNL1        0.2105
     15 N          22.2347   73.8344    2.8693 N.ar    1  UNL1       -0.2551
     16 C          23.4195   74.3649    2.5184 C.ar    1  UNL1        0.3323
     17 N          24.3007   74.7677    3.4528 N.ar    1  UNL1       -0.2743
     18 C          24.0118   74.6359    4.7617 C.ar    1  UNL1        0.2626
     19 C          22.7699   74.0735    5.1461 C.ar    1  UNL1        0.0795
     20 C          21.9027   73.6817    4.1886 C.ar    1  UNL1        0.0869
     21 O          23.6940   74.4906    1.3416 O.2     1  UNL1       -0.2464
     22 O          24.8108   74.9959    5.6082 O.2     1  UNL1       -0.2670
     23 H          25.1494   75.1524    3.1815 H       1  UNL1        0.1734
     24 O          21.5624   71.8569   -4.5920 O.3     1  UNL1       -0.2703
     25 P          21.6139   73.0527   -5.6679 P.3     1  UNL1        0.2208
     26 O          21.7665   74.3443   -4.9626 O.2     1  UNL1       -0.5170
     27 O          22.8655   72.8308   -6.6570 O.3     1  UNL1       -0.4371
     28 O          20.2509   73.0652   -6.5236 O.3     1  UNL1       -0.2858
     29 C          20.0326   71.7282   -6.9758 C.3     1  UNL1        0.2704
     30 C          19.9021   71.7210   -8.4997 C.3     1  UNL1        0.1967
     31 C          18.7347   72.6263   -8.9044 C.3     1  UNL1        0.1715
     32 C          17.4823   72.1819   -8.1405 C.3     1  UNL1        0.1694
     33 C          17.7960   72.1560   -6.6425 C.3     1  UNL1        0.1761
     34 O          21.1114   72.2061   -9.0858 O.3     1  UNL1       -0.3775
     35 O          18.5065   72.5156  -10.3109 O.3     1  UNL1       -0.3794
     36 O          17.0952   70.8775   -8.5751 O.3     1  UNL1       -0.3794
     37 O          18.8396   71.2175   -6.3854 O.3     1  UNL1       -0.3258
     38 H          21.8183   71.6119   -8.7992 H       1  UNL1        0.2106
     39 H          19.3210   72.7927  -10.7492 H       1  UNL1        0.2105
     40 H          16.9136   70.9404   -9.5218 H       1  UNL1        0.2105
     41 C          16.5416   71.7464   -5.8674 C.3     1  UNL1        0.1693
     42 O          16.4662   70.3212   -5.8038 O.3     1  UNL1       -0.3794
     43 H          15.6644   70.1052   -5.3081 H       1  UNL1        0.2105
@<TRIPOS>BOND
     1    15    16   ar
     2    15    20   ar
     3    15     6    1
     4    16    17   ar
     5    16    21    2
     6    17    18   ar
     7    17    23    1
     8    18    19   ar
     9    18    22    2
    10    19    20   ar
    11     6     7    1
    12     6    11    1
    13     7     8    1
    14     7     9    1
    15     8    13    1
    16     9    10    1
    17     9    12    1
    18    10    11    1
    19    10     5    1
    20    12    14    1
    21     5     4    1
    22     4     1    1
    23     1     2    2
    24     1     3    1
    25     1    24    1
    26    24    25    1
    27    25    26    2
    28    25    27    1
    29    25    28    1
    30    28    29    1
    31    29    30    1
    32    29    37    1
    33    30    31    1
    34    30    34    1
    35    31    32    1
    36    31    35    1
    37    32    33    1
    38    32    36    1
    39    33    41    1
    40    33    37    1
    41    41    42    1
    42    34    38    1
    43    35    39    1
    44    36    40    1
    45    42    43    1
@<TRIPOS>MOLECULE
GDU
 43 45 0 0 0
SMALL
GASTEIGER

@<TRIPOS>ATOM
      1 P          22.3175   71.4010   -2.6767 P.3     1  UNL1        0.2189
      2 O          23.3129   70.5582   -3.3756 O.2     1  UNL1       -0.5170
      3 O          23.0723   72.6008   -1.9126 O.3     1  UNL1       -0.4371
      4 O          21.2850   72.0124   -3.7476 O.3     1  UNL1       -0.3112
      5 C          20.6528   70.9052   -4.3917 C.3     1  UNL1        0.1811
      6 C          17.4959   71.8330   -5.8410 C.3     1  UNL1        0.2383
      7 C          17.6148   70.3109   -6.1090 C.3     1  UNL1        0.1895
      8 O          16.3250   69.6950   -6.1325 O.3     1  UNL1       -0.3779
      9 C          18.4358   69.8285   -4.8849 C.3     1  UNL1        0.1713
     10 C          19.1360   71.1031   -4.3782 C.3     1  UNL1        0.1764
     11 O          18.7753   72.1748   -5.2667 O.3     1  UNL1       -0.3308
     12 O          17.5699   69.2931   -3.8822 O.3     1  UNL1       -0.3794
     13 H          16.4686   68.7536   -6.3031 H       1  UNL1        0.2106
     14 H          17.1177   68.5357   -4.2780 H       1  UNL1        0.2105
     15 N          17.2799   72.5637   -7.0909 N.ar    1  UNL1       -0.2551
     16 C          18.1822   72.4688   -8.0834 C.ar    1  UNL1        0.3323
     17 N          18.0056   73.1276   -9.2438 N.ar    1  UNL1       -0.2743
     18 C          16.9207   73.9047   -9.4263 C.ar    1  UNL1        0.2626
     19 C          15.9647   74.0187   -8.3874 C.ar    1  UNL1        0.0795
     20 C          16.1642   73.3438   -7.2354 C.ar    1  UNL1        0.0869
     21 O          19.1656   71.7713   -7.9335 O.2     1  UNL1       -0.2464
     22 O          16.7624   74.5051  -10.4746 O.2     1  UNL1       -0.2670
     23 H          18.6649   73.0442   -9.9510 H       1  UNL1        0.1734
     24 O          21.5149   70.5057   -1.6060 O.3     1  UNL1       -0.2703
     25 P          22.3085   70.6235   -0.2109 P.3     1  UNL1        0.2208
     26 O          21.6222   69.8101    0.8170 O.2     1  UNL1       -0.5170
     27 O          23.8142   70.0850   -0.4033 O.3     1  UNL1       -0.4371
     28 O          22.3461   72.1625    0.2582 O.3     1  UNL1       -0.2858
     29 C          21.1205   72.4168    0.9459 C.3     1  UNL1        0.2704
     30 C          20.3336   73.4966    0.2015 C.3     1  UNL1        0.1967
     31 C          21.1837   74.7684    0.1232 C.3     1  UNL1        0.1715
     32 C          21.6310   75.1469    1.5397 C.3     1  UNL1        0.1694
     33 C          22.3218   73.9415    2.1822 C.3     1  UNL1        0.1761
     34 O          20.0273   73.0419   -1.1179 O.3     1  UNL1       -0.3775
     35 O          20.4089   75.8301   -0.4380 O.3     1  UNL1       -0.3794
     36 O          20.4922   75.5211    2.3163 O.3     1  UNL1       -0.3794
     37 O          21.4040   72.8528    2.2733 O.3     1  UNL1       -0.3258
     38 H          19.4989   72.2380   -1.0202 H       1  UNL1        0.2106
     39 H          20.1403   75.5444   -1.3203 H       1  UNL1        0.2105
     40 H          20.0870   76.2774    1.8724 H       1  UNL1        0.2105
     41 C          22.8029   74.3195    3.5849 C.3     1  UNL1        0.1693
     42 O          23.0181   73.1322    4.3498 O.3     1  UNL1       -0.3794
     43 H          23.3204   73.4136    5.2243 H       1  UNL1        0.2105
@<TRIPOS>BOND
     1    15    16   ar
     2    15    20   ar
     3    15     6    1
     4    16    17   ar
     5    16    21    2
     6    17    18   ar
     7    17    23    1
     8    18    19   ar
     9    18    22    2
    10    19    20   ar
    11     6     7    1
    12     6    11    1
    13     7     8    1
    14     7     9    1
    15     8    13    1
    16     9    10    1
    17     9    12    1
    18    10    11    1
    19    10     5    1
    20    12    14    1
    21     5     4    1
    22     4     1    1
    23     1     2    2
    24     1     3    1
    25     1    24    1
    26    24    25    1
    27    25    26    2
    28    25    27    1
    29    25    28    1
    30    28    29    1
    31    29    30    1
    32    29    37    1
    33    30    31    1
    34    30    34    1
    35    31    32    1
    36    31    35    1
    37    32    33    1
    38    32    36    1
    39    33    41    1
    40    33    37    1
    41    41    42    1
    42    34    38    1
    43    35    39    1
    44    36    40    1
    45    42    43    1
@<TRIPOS>MOLECULE
GDU
 43 45 0 0 0
SMALL
GASTEIGER

@<TRIPOS>ATOM
      1 P          21.5081   71.5990   -0.5689 P.3     1  UNL1        0.2189
      2 O          20.2590   72.3819   -0.4416 O.2     1  UNL1       -0.5170
      3 O          21.2513   70.0926   -0.0610 O.3     1  UNL1       -0.4371
      4 O          21.9720   71.5744   -2.1087 O.3     1  UNL1       -0.3112
      5 C          21.3922   70.4089   -2.6969 C.3     1  UNL1        0.1811
      6 C          18.6468   70.6993   -5.0003 C.3     1  UNL1        0.2383
      7 C          18.5515   69.2487   -4.4622 C.3     1  UNL1        0.1895
      8 O          17.1934   68.8035   -4.4341 O.3     1  UNL1       -0.3779
      9 C          19.1146   69.3977   -3.0249 C.3     1  UNL1        0.1713
     10 C          19.9392   70.6971   -3.0788 C.3     1  UNL1        0.1764
     11 O          19.8776   71.1906   -4.4282 O.3     1  UNL1       -0.3308
     12 O          18.0487   69.5125   -2.0801 O.3     1  UNL1       -0.3794
     13 H          17.2036   67.8988   -4.0916 H       1  UNL1        0.2106
     14 H          17.5358   68.6948   -2.1357 H       1  UNL1        0.2105
     15 N          18.7189   70.7058   -6.4623 N.ar    1  UNL1       -0.2551
     16 C          17.5866   70.6568   -7.1861 C.ar    1  UNL1        0.3323
     17 N          17.6250   70.6650   -8.5315 N.ar    1  UNL1       -0.2743
     18 C          18.8058   70.7128   -9.1778 C.ar    1  UNL1        0.2626
     19 C          20.0069   70.7589   -8.4285 C.ar    1  UNL1        0.0795
     20 C          19.9396   70.7538   -7.0802 C.ar    1  UNL1        0.0869
     21 O          16.5140   70.6139   -6.6171 O.2     1  UNL1       -0.2464
     22 O          18.8418   70.7155  -10.3957 O.2     1  UNL1       -0.2670
     23 H          16.7978   70.6335   -9.0379 H       1  UNL1        0.1734
     24 O          22.6595   72.2776    0.3290 O.3     1  UNL1       -0.2703
     25 P          22.0037   72.6004    1.7628 P.3     1  UNL1        0.2208
     26 O          21.2698   71.4109    2.2483 O.2     1  UNL1       -0.5170
     27 O          23.1663   72.9780    2.8116 O.3     1  UNL1       -0.4371
     28 O          20.9864   73.8394    1.6221 O.3     1  UNL1       -0.2858
     29 C          21.2554   74.7230    2.7115 C.3     1  UNL1        0.2704
     30 C          20.1743   74.5569    3.7807 C.3     1  UNL1        0.1967
     31 C          18.8080   74.8639    3.1600 C.3     1  UNL1        0.1715
     32 C          18.8681   76.2473    2.5025 C.3     1  UNL1        0.1694
     33 C          20.0480   76.2844    1.5281 C.3     1  UNL1        0.1761
     34 O          20.1883   73.2150    4.2711 O.3     1  UNL1       -0.3775
     35 O          17.8055   74.8569    4.1786 O.3     1  UNL1       -0.3794
     36 O          19.0408   77.2470    3.5079 O.3     1  UNL1       -0.3794
     37 O          21.2662   76.0679    2.2388 O.3     1  UNL1       -0.3258
     38 H          21.0670   73.0639    4.6452 H       1  UNL1        0.2106
     39 H          17.8115   73.9747    4.5711 H       1  UNL1        0.2105
     40 H          18.2801   77.1828    4.1000 H       1  UNL1        0.2105
     41 C          20.0965   77.6507    0.8405 C.3     1  UNL1        0.1693
     42 O          20.8883   78.5479    1.6208 O.3     1  UNL1       -0.3794
     43 H          20.8941   79.3948    1.1537 H       1  UNL1        0.2105
@<TRIPOS>BOND
     1    15    16   ar
     2    15    20   ar
     3    15     6    1
     4    16    17   ar
     5    16    21    2
     6    17    18   ar
     7    17    23    1
     8    18    19   ar
     9    18    22    2
    10    19    20   ar
    11     6     7    1
    12     6    11    1
    13     7     8    1
    14     7     9    1
    15     8    13    1
    16     9    10    1
    17     9    12    1
    18    10    11    1
    19    10     5    1
    20    12    14    1
    21     5     4    1
    22     4     1    1
    23     1     2    2
    24     1     3    1
    25     1    24    1
    26    24    25    1
    27    25    26    2
    28    25    27    1
    29    25    28    1
    30    28    29    1
    31    29    30    1
    32    29    37    1
    33    30    31    1
    34    30    34    1
    35    31    32    1
    36    31    35    1
    37    32    33    1
    38    32    36    1
    39    33    41    1
    40    33    37    1
    41    41    42    1
    42    34    38    1
    43    35    39    1
    44    36    40    1
    45    42    43    1
@<TRIPOS>MOLECULE
GDU
 43 45 0 0 0
SMALL
GASTEIGER

@<TRIPOS>ATOM
      1 P          21.1405   70.7440   -2.0891 P.3     1  UNL1        0.2189
      2 O          21.8977   70.0182   -3.1328 O.2     1  UNL1       -0.5170
      3 O          20.8392   69.7519   -0.8571 O.3     1  UNL1       -0.4371
      4 O          22.0063   71.9963   -1.5704 O.3     1  UNL1       -0.3112
      5 C          21.1305   73.1246   -1.5495 C.3     1  UNL1        0.1811
      6 C          21.2325   73.8802    1.9642 C.3     1  UNL1        0.2383
      7 C          20.8145   75.2128    1.2915 C.3     1  UNL1        0.1895
      8 O          19.9736   75.9791    2.1570 O.3     1  UNL1       -0.3779
      9 C          20.0265   74.7174    0.0510 C.3     1  UNL1        0.1713
     10 C          20.5210   73.2735   -0.1543 C.3     1  UNL1        0.1764
     11 O          21.5213   73.0145    0.8459 O.3     1  UNL1       -0.3308
     12 O          18.6214   74.7401    0.3100 O.3     1  UNL1       -0.3794
     13 H          19.7505   76.7915    1.6816 H       1  UNL1        0.2106
     14 H          18.3843   75.6602    0.4885 H       1  UNL1        0.2105
     15 N          22.4252   74.0695    2.7915 N.ar    1  UNL1       -0.2551
     16 C          22.4376   73.6158    4.0573 C.ar    1  UNL1        0.3323
     17 N          23.5228   73.7738    4.8379 N.ar    1  UNL1       -0.2743
     18 C          24.6161   74.4013    4.3635 C.ar    1  UNL1        0.2626
     19 C          24.6153   74.8895    3.0339 C.ar    1  UNL1        0.0795
     20 C          23.5153   74.7139    2.2713 C.ar    1  UNL1        0.0869
     21 O          21.4590   73.0473    4.4990 O.2     1  UNL1       -0.2464
     22 O          25.5971   74.5490    5.0709 O.2     1  UNL1       -0.2670
     23 H          23.5158   73.4362    5.7477 H       1  UNL1        0.1734
     24 O          19.7491   71.2702   -2.7051 O.3     1  UNL1       -0.2703
     25 P          19.1127   70.0459   -3.5334 P.3     1  UNL1        0.2208
     26 O          19.7087   68.7738   -3.0690 O.2     1  UNL1       -0.5170
     27 O          17.5199   70.0093   -3.2977 O.3     1  UNL1       -0.4371
     28 O          19.4176   70.2415   -5.1015 O.3     1  UNL1       -0.2858
     29 C          18.7596   71.4430   -5.5054 C.3     1  UNL1        0.2704
     30 C          18.0415   71.2079   -6.8352 C.3     1  UNL1        0.1967
     31 C          19.0679   70.7738   -7.8862 C.3     1  UNL1        0.1715
     32 C          20.1952   71.8116   -7.9282 C.3     1  UNL1        0.1694
     33 C          20.7516   71.9995   -6.5147 C.3     1  UNL1        0.1761
     34 O          17.0577   70.1846   -6.6736 O.3     1  UNL1       -0.3775
     35 O          18.4388   70.6926   -9.1669 O.3     1  UNL1       -0.3794
     36 O          19.6836   73.0533   -8.4145 O.3     1  UNL1       -0.3794
     37 O          19.7228   72.4838   -5.6528 O.3     1  UNL1       -0.3258
     38 H          16.4385   70.4968   -5.9997 H       1  UNL1        0.2106
     39 H          17.7316   70.0397   -9.0904 H       1  UNL1        0.2105
     40 H          19.3398   72.8861   -9.3017 H       1  UNL1        0.2105
     41 C          21.9013   73.0090   -6.5510 C.3     1  UNL1        0.1693
     42 O          22.7906   72.6785   -7.6191 O.3     1  UNL1       -0.3794
     43 H          23.4985   73.3373   -7.6079 H       1  UNL1        0.2105
@<TRIPOS>BOND
     1    15    16   ar
     2    15    20   ar
     3    15     6    1
     4    16    17   ar
     5    16    21    2
     6    17    18   ar
     7    17    23    1
     8    18    19   ar
     9    18    22    2
    10    19    20   ar
    11     6     7    1
    12     6    11    1
    13     7     8    1
    14     7     9    1
    15     8    13    1
    16     9    10    1
    17     9    12    1
    18    10    11    1
    19    10     5    1
    20    12    14    1
    21     5     4    1
    22     4     1    1
    23     1     2    2
    24     1     3    1
    25     1    24    1
    26    24    25    1
    27    25    26    2
    28    25    27    1
    29    25    28    1
    30    28    29    1
    31    29    30    1
    32    29    37    1
    33    30    31    1
    34    30    34    1
    35    31    32    1
    36    31    35    1
    37    32    33    1
    38    32    36    1
    39    33    41    1
    40    33    37    1
    41    41    42    1
    42    34    38    1
    43    35    39    1
    44    36    40    1
    45    42    43    1
@<TRIPOS>MOLECULE
GDU
 43 45 0 0 0
SMALL
GASTEIGER

@<TRIPOS>ATOM
      1 P          22.4757   71.9303   -3.3023 P.3     1  UNL1        0.2189
      2 O          23.2524   73.1475   -3.6258 O.2     1  UNL1       -0.5170
      3 O          23.4655   70.6615   -3.2457 O.3     1  UNL1       -0.4371
      4 O          21.7577   72.1149   -1.8749 O.3     1  UNL1       -0.3112
      5 C          22.5007   73.1059   -1.1632 C.3     1  UNL1        0.1811
      6 C          22.5925   73.4360    2.4159 C.3     1  UNL1        0.2383
      7 C          21.2148   72.7900    2.1199 C.3     1  UNL1        0.1895
      8 O          20.8075   71.9418    3.1961 O.3     1  UNL1       -0.3779
      9 C          21.5124   71.9602    0.8439 C.3     1  UNL1        0.1713
     10 C          22.7777   72.6145    0.2588 C.3     1  UNL1        0.1764
     11 O          23.1165   73.7283    1.1031 O.3     1  UNL1       -0.3308
     12 O          21.7585   70.5939    1.1826 O.3     1  UNL1       -0.3794
     13 H          19.9475   71.5733    2.9505 H       1  UNL1        0.2106
     14 H          20.9520   70.2585    1.5970 H       1  UNL1        0.2105
     15 N          22.4315   74.6662    3.1927 N.ar    1  UNL1       -0.2551
     16 C          23.0906   74.8115    4.3558 C.ar    1  UNL1        0.3323
     17 N          22.9628   75.9341    5.0875 N.ar    1  UNL1       -0.2743
     18 C          22.1602   76.9313    4.6683 C.ar    1  UNL1        0.2626
     19 C          21.4553   76.7898    3.4479 C.ar    1  UNL1        0.0795
     20 C          21.6048   75.6553    2.7317 C.ar    1  UNL1        0.0869
     21 O          23.8186   73.9208    4.7466 O.2     1  UNL1       -0.2464
     22 O          22.0402   77.9458    5.3322 O.2     1  UNL1       -0.2670
     23 H          23.4493   76.0238    5.9224 H       1  UNL1        0.1734
     24 O          21.3604   71.6888   -4.4382 O.3     1  UNL1       -0.2703
     25 P          21.4262   72.9523   -5.4329 P.3     1  UNL1        0.2208
     26 O          21.3347   74.2031   -4.6479 O.2     1  UNL1       -0.5170
     27 O          22.8194   72.9270   -6.2406 O.3     1  UNL1       -0.4371
     28 O          20.2018   72.8807   -6.4749 O.3     1  UNL1       -0.2858
     29 C          20.4231   71.7341   -7.2970 C.3     1  UNL1        0.2704
     30 C          20.1939   72.1066   -8.7627 C.3     1  UNL1        0.1967
     31 C          18.7610   72.6221   -8.9279 C.3     1  UNL1        0.1715
     32 C          17.7951   71.5749   -8.3623 C.3     1  UNL1        0.1694
     33 C          18.2054   71.2440   -6.9252 C.3     1  UNL1        0.1761
     34 O          21.1183   73.1257   -9.1477 O.3     1  UNL1       -0.3775
     35 O          18.4842   72.8353  -10.3137 O.3     1  UNL1       -0.3794
     36 O          17.8484   70.3937   -9.1635 O.3     1  UNL1       -0.3794
     37 O          19.5231   70.6966   -6.9148 O.3     1  UNL1       -0.3258
     38 H          22.0046   72.7607   -9.0209 H       1  UNL1        0.2106
     39 H          19.1207   73.4894  -10.6288 H       1  UNL1        0.2105
     40 H          17.5888   70.6503  -10.0580 H       1  UNL1        0.2105
     41 C          17.2265   70.2241   -6.3392 C.3     1  UNL1        0.1693
     42 O          15.9916   70.2846   -7.0549 O.3     1  UNL1       -0.3794
     43 H          15.4044   69.6278   -6.6560 H       1  UNL1        0.2105
@<TRIPOS>BOND
     1    15    16   ar
     2    15    20   ar
     3    15     6    1
     4    16    17   ar
     5    16    21    2
     6    17    18   ar
     7    17    23    1
     8    18    19   ar
     9    18    22    2
    10    19    20   ar
    11     6     7    1
    12     6    11    1
    13     7     8    1
    14     7     9    1
    15     8    13    1
    16     9    10    1
    17     9    12    1
    18    10    11    1
    19    10     5    1
    20    12    14    1
    21     5     4    1
    22     4     1    1
    23     1     2    2
    24     1     3    1
    25     1    24    1
    26    24    25    1
    27    25    26    2
    28    25    27    1
    29    25    28    1
    30    28    29    1
    31    29    30    1
    32    29    37    1
    33    30    31    1
    34    30    34    1
    35    31    32    1
    36    31    35    1
    37    32    33    1
    38    32    36    1
    39    33    41    1
    40    33    37    1
    41    41    42    1
    42    34    38    1
    43    35    39    1
    44    36    40    1
    45    42    43    1
@<TRIPOS>MOLECULE
GDU
 43 45 0 0 0
SMALL
GASTEIGER

@<TRIPOS>ATOM
      1 P          20.1991   70.3724   -3.0799 P.3     1  UNL1        0.2189
      2 O          21.2910   69.4101   -2.8129 O.2     1  UNL1       -0.5170
      3 O          18.8541   69.8745   -2.3477 O.3     1  UNL1       -0.4371
      4 O          20.6111   71.8218   -2.5174 O.3     1  UNL1       -0.3112
      5 C          20.4960   71.7617   -1.0949 C.3     1  UNL1        0.1811
      6 C          22.8084   72.2136    1.6210 C.3     1  UNL1        0.2383
      7 C          22.5222   70.6902    1.6031 C.3     1  UNL1        0.1895
      8 O          23.6581   69.9525    2.0600 O.3     1  UNL1       -0.3779
      9 C          22.2606   70.4265    0.0973 C.3     1  UNL1        0.1713
     10 C          21.8898   71.8108   -0.4662 C.3     1  UNL1        0.1764
     11 O          21.8977   72.7391    0.6322 O.3     1  UNL1       -0.3308
     12 O          23.4391   69.9214   -0.5335 O.3     1  UNL1       -0.3794
     13 H          23.4154   69.0167    2.0249 H       1  UNL1        0.2106
     14 H          23.6531   69.0850   -0.0985 H       1  UNL1        0.2105
     15 N          22.5203   72.7792    2.9400 N.ar    1  UNL1       -0.2551
     16 C          21.2897   72.6501    3.4666 C.ar    1  UNL1        0.3323
     17 N          20.9996   73.1579    4.6790 N.ar    1  UNL1       -0.2743
     18 C          21.9404   73.8158    5.3835 C.ar    1  UNL1        0.2626
     19 C          23.2394   73.9645    4.8389 C.ar    1  UNL1        0.0795
     20 C          23.5046   73.4418    3.6228 C.ar    1  UNL1        0.0869
     21 O          20.4308   72.0588    2.8431 O.2     1  UNL1       -0.2464
     22 O          21.6774   74.2799    6.4789 O.2     1  UNL1       -0.2670
     23 H          20.1074   73.0517    5.0456 H       1  UNL1        0.1734
     24 O          19.9421   70.4643   -4.6667 O.3     1  UNL1       -0.2703
     25 P          18.5005   71.1511   -4.8669 P.3     1  UNL1        0.2208
     26 O          17.4841   70.1031   -5.1071 O.2     1  UNL1       -0.5170
     27 O          18.1126   71.9804   -3.5417 O.3     1  UNL1       -0.4371
     28 O          18.5511   72.1499   -6.1278 O.3     1  UNL1       -0.2858
     29 C          18.0637   71.4205   -7.2548 C.3     1  UNL1        0.2704
     30 C          19.2041   71.1985   -8.2496 C.3     1  UNL1        0.1967
     31 C          19.7584   72.5587   -8.6843 C.3     1  UNL1        0.1715
     32 C          18.5991   73.4176   -9.2020 C.3     1  UNL1        0.1694
     33 C          17.5046   73.4729   -8.1333 C.3     1  UNL1        0.1761
     34 O          20.2392   70.4346   -7.6283 O.3     1  UNL1       -0.3775
     35 O          20.7234   72.3745   -9.7222 O.3     1  UNL1       -0.3794
     36 O          18.0755   72.8417  -10.3996 O.3     1  UNL1       -0.3794
     37 O          17.0143   72.1575   -7.8779 O.3     1  UNL1       -0.3258
     38 H          19.8445   69.5920   -7.3652 H       1  UNL1        0.2106
     39 H          21.4252   71.8210   -9.3568 H       1  UNL1        0.2105
     40 H          18.7986   72.8218  -11.0400 H       1  UNL1        0.2105
     41 C          16.3566   74.3565   -8.6266 C.3     1  UNL1        0.1693
     42 O          15.3975   73.5505   -9.3134 O.3     1  UNL1       -0.3794
     43 H          14.6922   74.1436   -9.6067 H       1  UNL1        0.2105
@<TRIPOS>BOND
     1    15    16   ar
     2    15    20   ar
     3    15     6    1
     4    16    17   ar
     5    16    21    2
     6    17    18   ar
     7    17    23    1
     8    18    19   ar
     9    18    22    2
    10    19    20   ar
    11     6     7    1
    12     6    11    1
    13     7     8    1
    14     7     9    1
    15     8    13    1
    16     9    10    1
    17     9    12    1
    18    10    11    1
    19    10     5    1
    20    12    14    1
    21     5     4    1
    22     4     1    1
    23     1     2    2
    24     1     3    1
    25     1    24    1
    26    24    25    1
    27    25    26    2
    28    25    27    1
    29    25    28    1
    30    28    29    1
    31    29    30    1
    32    29    37    1
    33    30    31    1
    34    30    34    1
    35    31    32    1
    36    31    35    1
    37    32    33    1
    38    32    36    1
    39    33    41    1
    40    33    37    1
    41    41    42    1
    42    34    38    1
    43    35    39    1
    44    36    40    1
    45    42    43    1
@<TRIPOS>MOLECULE
GDU
 43 45 0 0 0
SMALL
GASTEIGER

@<TRIPOS>ATOM
      1 P          19.6228   69.7462   -3.4392 P.3     1  UNL1        0.2189
      2 O          19.1644   70.8568   -2.5755 O.2     1  UNL1       -0.5170
      3 O          18.7669   68.4224   -3.1104 O.3     1  UNL1       -0.4371
      4 O          19.4187   70.1473   -4.9833 O.3     1  UNL1       -0.3112
      5 C          18.0105   70.2407   -5.2039 C.3     1  UNL1        0.1811
      6 C          18.9482   72.7067   -7.6467 C.3     1  UNL1        0.2383
      7 C          18.7533   71.4040   -8.4639 C.3     1  UNL1        0.1895
      8 O          18.3033   71.6958   -9.7889 O.3     1  UNL1       -0.3779
      9 C          17.6506   70.6740   -7.6535 C.3     1  UNL1        0.1713
     10 C          17.7274   71.3151   -6.2554 C.3     1  UNL1        0.1764
     11 O          18.8015   72.2711   -6.2784 O.3     1  UNL1       -0.3308
     12 O          16.3680   70.8955   -8.2431 O.3     1  UNL1       -0.3794
     13 H          18.2024   70.8472  -10.2424 H       1  UNL1        0.2106
     14 H          16.4022   70.5251   -9.1355 H       1  UNL1        0.2105
     15 N          20.2834   73.2635   -7.8703 N.ar    1  UNL1       -0.2551
     16 C          21.0222   72.8290   -8.9066 C.ar    1  UNL1        0.3323
     17 N          22.2514   73.3270   -9.1365 N.ar    1  UNL1       -0.2743
     18 C          22.7676   74.2670   -8.3215 C.ar    1  UNL1        0.2626
     19 C          22.0031   74.7300   -7.2226 C.ar    1  UNL1        0.0795
     20 C          20.7715   74.2167   -7.0175 C.ar    1  UNL1        0.0869
     21 O          20.5697   71.9818   -9.6506 O.2     1  UNL1       -0.2464
     22 O          23.8820   74.7149   -8.5260 O.2     1  UNL1       -0.2670
     23 H          22.7689   73.0049   -9.8916 H       1  UNL1        0.1734
     24 O          21.1821   69.4586   -3.1597 O.3     1  UNL1       -0.2703
     25 P          21.9060   70.8907   -3.0365 P.3     1  UNL1        0.2208
     26 O          23.3721   70.7111   -3.1230 O.2     1  UNL1       -0.5170
     27 O          21.4113   71.8466   -4.2347 O.3     1  UNL1       -0.4371
     28 O          21.5292   71.5639   -1.6242 O.3     1  UNL1       -0.2858
     29 C          22.7067   71.5215   -0.8170 C.3     1  UNL1        0.2704
     30 C          22.3406   71.0562    0.5933 C.3     1  UNL1        0.1967
     31 C          21.3127   72.0246    1.1867 C.3     1  UNL1        0.1715
     32 C          21.8711   73.4492    1.0941 C.3     1  UNL1        0.1694
     33 C          22.2711   73.7337   -0.3557 C.3     1  UNL1        0.1761
     34 O          21.7837   69.7419    0.5343 O.3     1  UNL1       -0.3775
     35 O          21.0709   71.6891    2.5547 O.3     1  UNL1       -0.3794
     36 O          23.0135   73.5707    1.9428 O.3     1  UNL1       -0.3794
     37 O          23.2901   72.8211   -0.7618 O.3     1  UNL1       -0.3258
     38 H          22.4607   69.1691    0.1489 H       1  UNL1        0.2106
     39 H          20.7334   70.7845    2.5656 H       1  UNL1        0.2105
     40 H          22.7162   73.3779    2.8415 H       1  UNL1        0.2105
     41 C          22.7983   75.1662   -0.4657 C.3     1  UNL1        0.1693
     42 O          21.7378   76.0333   -0.8710 O.3     1  UNL1       -0.3794
     43 H          22.1105   76.9239   -0.9276 H       1  UNL1        0.2105
@<TRIPOS>BOND
     1    15    16   ar
     2    15    20   ar
     3    15     6    1
     4    16    17   ar
     5    16    21    2
     6    17    18   ar
     7    17    23    1
     8    18    19   ar
     9    18    22    2
    10    19    20   ar
    11     6     7    1
    12     6    11    1
    13     7     8    1
    14     7     9    1
    15     8    13    1
    16     9    10    1
    17     9    12    1
    18    10    11    1
    19    10     5    1
    20    12    14    1
    21     5     4    1
    22     4     1    1
    23     1     2    2
    24     1     3    1
    25     1    24    1
    26    24    25    1
    27    25    26    2
    28    25    27    1
    29    25    28    1
    30    28    29    1
    31    29    30    1
    32    29    37    1
    33    30    31    1
    34    30    34    1
    35    31    32    1
    36    31    35    1
    37    32    33    1
    38    32    36    1
    39    33    41    1
    40    33    37    1
    41    41    42    1
    42    34    38    1
    43    35    39    1
    44    36    40    1
    45    42    43    1
