@<TRIPOS>MOLECULE
UDP-glaA
 43 45 0 0 0
SMALL
GASTEIGER

@<TRIPOS>ATOM
      1 P          23.0405   72.0127   -3.2075 P.3     1  UNL1        0.2189
      2 O          23.7596   72.9920   -4.2758 O.3     1  UNL1       -0.4371
      3 O          23.5219   70.5915   -3.2277 O.2     1  UNL1       -0.5170
      4 O          21.4616   72.2241   -3.4864 O.3     1  UNL1       -0.3112
      5 C          20.6284   71.0800   -3.5647 C.3     1  UNL1        0.1811
      6 O          18.7483   72.0514   -4.7030 O.3     1  UNL1       -0.3308
      7 O          17.0623   70.9026   -2.5055 O.3     1  UNL1       -0.3794
      8 O          16.6828   69.1252   -4.5384 O.3     1  UNL1       -0.3779
      9 C          18.2283   70.3614   -3.1263 C.3     1  UNL1        0.1713
     10 C          17.8958   69.8489   -4.5116 C.3     1  UNL1        0.1895
     11 C          19.1757   71.5142   -3.4318 C.3     1  UNL1        0.1764
     12 C          17.8258   71.1357   -5.3161 C.3     1  UNL1        0.2383
     13 H          17.3313   71.2529   -1.6392 H       1  UNL1        0.2105
     14 H          16.7717   68.3820   -3.9172 H       1  UNL1        0.2106
     15 O          16.0276   70.4281   -7.3755 O.2     1  UNL1       -0.2464
     16 O          19.3722   70.4295  -10.5461 O.2     1  UNL1       -0.2670
     17 N          18.1993   70.9452   -6.6885 N.ar    1  UNL1       -0.2551
     18 N          17.6944   70.4288   -8.9529 N.ar    1  UNL1       -0.2743
     19 C          17.2193   70.5898   -7.6446 C.ar    1  UNL1        0.3323
     20 C          19.5245   71.1104   -7.0756 C.ar    1  UNL1        0.0869
     21 C          19.9616   70.9537   -8.3271 C.ar    1  UNL1        0.0795
     22 C          19.0024   70.5818   -9.3859 C.ar    1  UNL1        0.2626
     23 H          17.0075   70.1726   -9.6569 H       1  UNL1        0.1734
     24 O          23.2671   72.7806   -1.8024 O.3     1  UNL1       -0.2703
     25 P          23.3348   74.3577   -1.4549 P.3     1  UNL1        0.2208
     26 O          22.0936   74.9749   -2.2884 O.3     1  UNL1       -0.4371
     27 O          24.6607   74.9976   -1.7523 O.2     1  UNL1       -0.5170
     28 O          22.8786   74.4560    0.0898 O.3     1  UNL1       -0.2858
     29 O          21.6039   72.4977    0.4631 O.3     1  UNL1       -0.3226
     30 O          21.7104   74.2032    4.2525 O.3     1  UNL1       -0.3794
     31 O          21.3317   75.8685    1.8883 O.3     1  UNL1       -0.3775
     32 O          20.8698   71.8131    3.1522 O.3     1  UNL1       -0.3792
     33 C          22.1604   73.8449    2.9489 C.3     1  UNL1        0.1718
     34 C          21.2407   74.4478    1.8816 C.3     1  UNL1        0.1968
     35 C          22.1699   72.3183    2.8305 C.3     1  UNL1        0.1723
     36 C          21.6136   73.9289    0.4872 C.3     1  UNL1        0.2706
     37 C          22.5123   71.9169    1.3974 C.3     1  UNL1        0.1830
     38 H          22.3189   73.7990    4.8943 H       1  UNL1        0.2105
     39 H          20.7416   76.2036    1.1924 H       1  UNL1        0.2106
     40 H          20.2704   72.0095    2.4124 H       1  UNL1        0.2106
     41 O          23.4836   69.8076    1.7309 O.co2   1  UNL1       -0.5466
     42 O          21.4778   69.8675    0.6493 O.co2   1  UNL1       -0.5466
     43 C          22.4064   70.4376    1.2034 C.2     1  UNL1        0.0799
@<TRIPOS>UNITY_ATOM_ATTR
41 1
charge -1
@<TRIPOS>BOND
     1     1     4    1
     2     1    24    1
     3     1     2    1
     4     1     3    2
     5    25    28    1
     6    25    24    1
     7    25    26    1
     8    25    27    2
     9     6    11    1
    10     6    12    1
    11    29    36    1
    12    29    37    1
    13     7     9    1
    14     7    13    1
    15     8    10    1
    16     8    14    1
    17     4     5    1
    18    28    36    1
    19    30    33    1
    20    30    38    1
    21    31    34    1
    22    31    39    1
    23    32    35    1
    24    32    40    1
    25    41    43   ar
    26    15    19    2
    27    42    43   ar
    28    16    22    2
    29    17    12    1
    30    17    19   ar
    31    17    20   ar
    32    18    19   ar
    33    18    22   ar
    34    18    23    1
    35     9    10    1
    36     9    11    1
    37    10    12    1
    38    11     5    1
    39    33    34    1
    40    33    35    1
    41    34    36    1
    42    35    37    1
    43    37    43    1
    44    20    21   ar
    45    21    22   ar
@<TRIPOS>MOLECULE
UDP-glaA
 43 45 0 0 0
SMALL
GASTEIGER

@<TRIPOS>ATOM
      1 P          22.9903   71.6587   -2.7181 P.3     1  UNL1        0.2189
      2 O          23.8180   72.9669   -3.1880 O.3     1  UNL1       -0.4371
      3 O          23.5110   70.3555   -3.2498 O.2     1  UNL1       -0.5170
      4 O          21.4578   72.0104   -3.0968 O.3     1  UNL1       -0.3112
      5 C          20.6117   70.9626   -3.5390 C.3     1  UNL1        0.1811
      6 O          18.7428   71.9801   -4.6553 O.3     1  UNL1       -0.3308
      7 O          17.0405   70.7804   -2.4980 O.3     1  UNL1       -0.3794
      8 O          16.6560   69.0653   -4.5827 O.3     1  UNL1       -0.3779
      9 C          18.2049   70.2490   -3.1300 C.3     1  UNL1        0.1713
     10 C          17.8740   69.7791   -4.5308 C.3     1  UNL1        0.1895
     11 C          19.1616   71.4032   -3.3987 C.3     1  UNL1        0.1764
     12 C          17.8162   71.0891   -5.2979 C.3     1  UNL1        0.2383
     13 H          17.3087   71.1035   -1.6209 H       1  UNL1        0.2105
     14 H          16.7373   68.3038   -3.9830 H       1  UNL1        0.2106
     15 O          16.0361   70.3728   -7.3700 O.2     1  UNL1       -0.2464
     16 O          19.3763   70.5276  -10.5413 O.2     1  UNL1       -0.2670
     17 N          18.1934   70.9357   -6.6740 N.ar    1  UNL1       -0.2551
     18 N          17.7007   70.4498   -8.9477 N.ar    1  UNL1       -0.2743
     19 C          17.2226   70.5723   -7.6364 C.ar    1  UNL1        0.3323
     20 C          19.5133   71.1446   -7.0583 C.ar    1  UNL1        0.0869
     21 C          19.9533   71.0244   -8.3128 C.ar    1  UNL1        0.0795
     22 C          19.0036   70.6470   -9.3782 C.ar    1  UNL1        0.2626
     23 H          17.0204   70.1888   -9.6564 H       1  UNL1        0.1734
     24 O          23.0033   71.7816   -1.1057 O.3     1  UNL1       -0.2703
     25 P          22.4812   70.7670    0.0392 P.3     1  UNL1        0.2208
     26 O          23.6544   69.6562    0.1137 O.3     1  UNL1       -0.4371
     27 O          21.1111   70.2058   -0.2133 O.2     1  UNL1       -0.5170
     28 O          22.6179   71.5983    1.4155 O.3     1  UNL1       -0.2858
     29 O          21.6836   72.4606    3.4112 O.3     1  UNL1       -0.3226
     30 O          21.3800   75.7075    0.8335 O.3     1  UNL1       -0.3794
     31 O          20.7978   73.0091   -0.1076 O.3     1  UNL1       -0.3775
     32 O          20.9929   75.2441    3.5289 O.3     1  UNL1       -0.3792
     33 C          21.9249   74.5281    1.4185 C.3     1  UNL1        0.1718
     34 C          20.9500   73.3558    1.2648 C.3     1  UNL1        0.1968
     35 C          22.1975   74.7916    2.9020 C.3     1  UNL1        0.1723
     36 C          21.4491   72.1292    2.0386 C.3     1  UNL1        0.2706
     37 C          22.6479   73.4988    3.5786 C.3     1  UNL1        0.1830
     38 H          22.0279   76.4221    0.9561 H       1  UNL1        0.2105
     39 H          20.1814   72.2590   -0.1541 H       1  UNL1        0.2106
     40 H          20.3922   74.4860    3.6270 H       1  UNL1        0.2106
     41 O          23.4291   74.8468    5.3325 O.co2   1  UNL1       -0.5466
     42 O          22.4132   72.8872    5.9025 O.co2   1  UNL1       -0.5466
     43 C          22.8012   73.6787    5.0555 C.2     1  UNL1        0.0799
@<TRIPOS>UNITY_ATOM_ATTR
41 1
charge -1
@<TRIPOS>BOND
     1     1     4    1
     2     1    24    1
     3     1     2    1
     4     1     3    2
     5    25    28    1
     6    25    24    1
     7    25    26    1
     8    25    27    2
     9     6    11    1
    10     6    12    1
    11    29    36    1
    12    29    37    1
    13     7     9    1
    14     7    13    1
    15     8    10    1
    16     8    14    1
    17     4     5    1
    18    28    36    1
    19    30    33    1
    20    30    38    1
    21    31    34    1
    22    31    39    1
    23    32    35    1
    24    32    40    1
    25    41    43   ar
    26    15    19    2
    27    42    43   ar
    28    16    22    2
    29    17    12    1
    30    17    19   ar
    31    17    20   ar
    32    18    19   ar
    33    18    22   ar
    34    18    23    1
    35     9    10    1
    36     9    11    1
    37    10    12    1
    38    11     5    1
    39    33    34    1
    40    33    35    1
    41    34    36    1
    42    35    37    1
    43    37    43    1
    44    20    21   ar
    45    21    22   ar
@<TRIPOS>MOLECULE
UDP-glaA
 43 45 0 0 0
SMALL
GASTEIGER

@<TRIPOS>ATOM
      1 P          21.8737   73.4022   -5.8737 P.3     1  UNL1        0.2189
      2 O          22.1489   74.8985   -5.3235 O.3     1  UNL1       -0.4371
      3 O          22.8254   72.9330   -6.9350 O.2     1  UNL1       -0.5170
      4 O          20.3109   73.4212   -6.2896 O.3     1  UNL1       -0.3112
      5 C          19.9190   74.1868   -7.4164 C.3     1  UNL1        0.1811
      6 O          19.6149   71.8887   -8.0494 O.3     1  UNL1       -0.3308
      7 O          17.9476   72.9281  -10.3146 O.3     1  UNL1       -0.3794
      8 O          16.0670   72.1152   -8.5151 O.3     1  UNL1       -0.3779
      9 C          18.0650   73.4201   -8.9797 C.3     1  UNL1        0.1713
     10 C          17.3288   72.5110   -8.0183 C.3     1  UNL1        0.1895
     11 C          19.5125   73.2438   -8.5398 C.3     1  UNL1        0.1764
     12 C          18.2946   71.3462   -7.8828 C.3     1  UNL1        0.2383
     13 H          18.4657   73.5186  -10.8877 H       1  UNL1        0.2105
     14 H          15.5497   72.9229   -8.6771 H       1  UNL1        0.2106
     15 O          16.0472   69.9052   -6.9620 O.2     1  UNL1       -0.2464
     16 O          18.0799   68.9492   -2.9380 O.2     1  UNL1       -0.2670
     17 N          18.2095   70.7101   -6.5992 N.ar    1  UNL1       -0.2551
     18 N          17.0607   69.4305   -4.9586 N.ar    1  UNL1       -0.2743
     19 C          17.0352   70.0118   -6.2332 C.ar    1  UNL1        0.3323
     20 C          19.2824   70.7819   -5.7176 C.ar    1  UNL1        0.0869
     21 C          19.2914   70.2219   -4.5059 C.ar    1  UNL1        0.0795
     22 C          18.1036   69.4752   -4.0465 C.ar    1  UNL1        0.2626
     23 H          16.2268   68.9239   -4.6739 H       1  UNL1        0.1734
     24 O          21.8792   72.5128   -4.5231 O.3     1  UNL1       -0.2703
     25 P          23.0424   72.2484   -3.4325 P.3     1  UNL1        0.2208
     26 O          24.2685   73.1561   -3.9702 O.3     1  UNL1       -0.4371
     27 O          23.3840   70.7992   -3.2351 O.2     1  UNL1       -0.5170
     28 O          22.5316   73.0005   -2.0993 O.3     1  UNL1       -0.2858
     29 O          21.6796   71.2951   -0.6974 O.3     1  UNL1       -0.3226
     30 O          21.2521   74.6751    1.6843 O.3     1  UNL1       -0.3794
     31 O          20.6420   74.7839   -1.1656 O.3     1  UNL1       -0.3775
     32 O          20.9825   71.9454    2.0100 O.3     1  UNL1       -0.3792
     33 C          21.8266   73.8021    0.7157 C.3     1  UNL1        0.1718
     34 C          20.8512   73.5746   -0.4441 C.3     1  UNL1        0.1968
     35 C          22.1612   72.4679    1.3882 C.3     1  UNL1        0.1723
     36 C          21.3882   72.5055   -1.4038 C.3     1  UNL1        0.2706
     37 C          22.6457   71.4709    0.3377 C.3     1  UNL1        0.1830
     38 H          21.9016   74.7884    2.3990 H       1  UNL1        0.2105
     39 H          20.0274   74.5890   -1.8930 H       1  UNL1        0.2106
     40 H          20.3898   71.6104    1.3160 H       1  UNL1        0.2106
     41 O          22.3469   69.1539    0.1235 O.co2   1  UNL1       -0.5466
     42 O          23.4253   69.8933    1.9909 O.co2   1  UNL1       -0.5466
     43 C          22.8611   70.1142    0.9291 C.2     1  UNL1        0.0799
@<TRIPOS>UNITY_ATOM_ATTR
41 1
charge -1
@<TRIPOS>BOND
     1     1     4    1
     2     1    24    1
     3     1     2    1
     4     1     3    2
     5    25    28    1
     6    25    24    1
     7    25    26    1
     8    25    27    2
     9     6    11    1
    10     6    12    1
    11    29    36    1
    12    29    37    1
    13     7     9    1
    14     7    13    1
    15     8    10    1
    16     8    14    1
    17     4     5    1
    18    28    36    1
    19    30    33    1
    20    30    38    1
    21    31    34    1
    22    31    39    1
    23    32    35    1
    24    32    40    1
    25    41    43   ar
    26    15    19    2
    27    42    43   ar
    28    16    22    2
    29    17    12    1
    30    17    19   ar
    31    17    20   ar
    32    18    19   ar
    33    18    22   ar
    34    18    23    1
    35     9    10    1
    36     9    11    1
    37    10    12    1
    38    11     5    1
    39    33    34    1
    40    33    35    1
    41    34    36    1
    42    35    37    1
    43    37    43    1
    44    20    21   ar
    45    21    22   ar
@<TRIPOS>MOLECULE
UDP-glaA
 43 45 0 0 0
SMALL
GASTEIGER

@<TRIPOS>ATOM
      1 P          19.5692   74.2236   -5.0526 P.3     1  UNL1        0.2189
      2 O          19.1059   75.6735   -4.5043 O.3     1  UNL1       -0.4371
      3 O          20.1456   74.2256   -6.4382 O.2     1  UNL1       -0.5170
      4 O          18.2667   73.2901   -4.8344 O.3     1  UNL1       -0.3112
      5 C          17.8136   73.0579   -3.5116 C.3     1  UNL1        0.1811
      6 O          16.9950   71.1219   -4.6761 O.3     1  UNL1       -0.3308
      7 O          17.9888   69.5272   -2.3393 O.3     1  UNL1       -0.3794
      8 O          19.9476   69.1448   -4.1974 O.3     1  UNL1       -0.3779
      9 C          18.5524   70.6913   -2.9435 C.3     1  UNL1        0.1713
     10 C          19.1934   70.3371   -4.2687 C.3     1  UNL1        0.1895
     11 C          17.4070   71.5974   -3.3756 C.3     1  UNL1        0.1764
     12 C          17.9846   70.2098   -5.1802 C.3     1  UNL1        0.2383
     13 H          17.5568   69.8089   -1.5149 H       1  UNL1        0.2105
     14 H          20.6307   69.2709   -3.5165 H       1  UNL1        0.2106
     15 O          16.0746   70.3211   -7.2574 O.2     1  UNL1       -0.2464
     16 O          19.2548   71.5339  -10.3644 O.2     1  UNL1       -0.2670
     17 N          18.2856   70.5523   -6.5409 N.ar    1  UNL1       -0.2551
     18 N          17.6595   70.9245   -8.8033 N.ar    1  UNL1       -0.2743
     19 C          17.2535   70.5784   -7.5077 C.ar    1  UNL1        0.3323
     20 C          19.5920   70.8579   -6.9061 C.ar    1  UNL1        0.0869
     21 C          19.9631   71.1864   -8.1455 C.ar    1  UNL1        0.0795
     22 C          18.9462   71.2360   -9.2146 C.ar    1  UNL1        0.2626
     23 H          16.9343   70.9490   -9.5150 H       1  UNL1        0.1734
     24 O          20.5823   73.7080   -3.9024 O.3     1  UNL1       -0.2703
     25 P          22.0997   74.1420   -3.5537 P.3     1  UNL1        0.2208
     26 O          21.9966   75.7470   -3.3823 O.3     1  UNL1       -0.4371
     27 O          23.1168   73.6903   -4.5624 O.2     1  UNL1       -0.5170
     28 O          22.3507   73.5869   -2.0594 O.3     1  UNL1       -0.2858
     29 O          21.3716   71.7830   -0.8819 O.3     1  UNL1       -0.3226
     30 O          22.0184   74.5531    2.1492 O.3     1  UNL1       -0.3794
     31 O          21.0366   75.4129   -0.4589 O.3     1  UNL1       -0.3775
     32 O          21.2294   71.9112    1.9820 O.3     1  UNL1       -0.3792
     33 C          22.2485   73.8370    0.9390 C.3     1  UNL1        0.1718
     34 C          21.0887   74.0536   -0.0389 C.3     1  UNL1        0.1968
     35 C          22.3883   72.3473    1.2640 C.3     1  UNL1        0.1723
     36 C          21.2424   73.1542   -1.2717 C.3     1  UNL1        0.2706
     37 C          22.4933   71.5468   -0.0323 C.3     1  UNL1        0.1830
     38 H          22.7742   74.3853    2.7376 H       1  UNL1        0.2105
     39 H          20.2955   75.4993   -1.0819 H       1  UNL1        0.2106
     40 H          20.4847   71.8519    1.3598 H       1  UNL1        0.2106
     41 O          23.7502   69.5696    0.0881 O.co2   1  UNL1       -0.5466
     42 O          21.5214   69.4122    0.5407 O.co2   1  UNL1       -0.5466
     43 C          22.5014   70.0749    0.2326 C.2     1  UNL1        0.0799
@<TRIPOS>UNITY_ATOM_ATTR
41 1
charge -1
@<TRIPOS>BOND
     1     1     4    1
     2     1    24    1
     3     1     2    1
     4     1     3    2
     5    25    28    1
     6    25    24    1
     7    25    26    1
     8    25    27    2
     9     6    11    1
    10     6    12    1
    11    29    36    1
    12    29    37    1
    13     7     9    1
    14     7    13    1
    15     8    10    1
    16     8    14    1
    17     4     5    1
    18    28    36    1
    19    30    33    1
    20    30    38    1
    21    31    34    1
    22    31    39    1
    23    32    35    1
    24    32    40    1
    25    41    43   ar
    26    15    19    2
    27    42    43   ar
    28    16    22    2
    29    17    12    1
    30    17    19   ar
    31    17    20   ar
    32    18    19   ar
    33    18    22   ar
    34    18    23    1
    35     9    10    1
    36     9    11    1
    37    10    12    1
    38    11     5    1
    39    33    34    1
    40    33    35    1
    41    34    36    1
    42    35    37    1
    43    37    43    1
    44    20    21   ar
    45    21    22   ar
@<TRIPOS>MOLECULE
UDP-glaA
 43 45 0 0 0
SMALL
GASTEIGER

@<TRIPOS>ATOM
      1 P          22.8090   71.7945   -2.2624 P.3     1  UNL1        0.2189
      2 O          23.5124   73.2444   -2.4051 O.3     1  UNL1       -0.4371
      3 O          23.3799   70.7243   -3.1460 O.2     1  UNL1       -0.5170
      4 O          21.2341   72.1041   -2.4611 O.3     1  UNL1       -0.3112
      5 C          20.5298   71.4087   -3.4758 C.3     1  UNL1        0.1811
      6 O          18.6005   72.2186   -4.6573 O.3     1  UNL1       -0.3308
      7 O          16.9720   71.0042   -2.4517 O.3     1  UNL1       -0.3794
      8 O          16.7441   69.1584   -4.4458 O.3     1  UNL1       -0.3779
      9 C          18.1809   70.5327   -3.0467 C.3     1  UNL1        0.1713
     10 C          17.9027   69.9663   -4.4230 C.3     1  UNL1        0.1895
     11 C          19.0485   71.7421   -3.3691 C.3     1  UNL1        0.1764
     12 C          17.7525   71.2262   -5.2585 C.3     1  UNL1        0.2383
     13 H          17.2048   71.3923   -1.5910 H       1  UNL1        0.2105
     14 H          16.8772   68.4377   -3.8063 H       1  UNL1        0.2106
     15 O          16.0289   70.3694   -7.3250 O.2     1  UNL1       -0.2464
     16 O          19.4106   70.5104  -10.4528 O.2     1  UNL1       -0.2670
     17 N          18.1556   71.0313   -6.6219 N.ar    1  UNL1       -0.2551
     18 N          17.7141   70.4396   -8.8811 N.ar    1  UNL1       -0.2743
     19 C          17.2122   70.5978   -7.5825 C.ar    1  UNL1        0.3323
     20 C          19.4737   71.2689   -6.9957 C.ar    1  UNL1        0.0869
     21 C          19.9366   71.1139   -8.2381 C.ar    1  UNL1        0.0795
     22 C          19.0163   70.6631   -9.3008 C.ar    1  UNL1        0.2626
     23 H          17.0537   70.1281   -9.5882 H       1  UNL1        0.1734
     24 O          22.9223   71.4911   -0.6780 O.3     1  UNL1       -0.2703
     25 P          22.0724   70.5005    0.2753 P.3     1  UNL1        0.2208
     26 O          23.2146   69.6224    1.0104 O.3     1  UNL1       -0.4371
     27 O          21.0358   69.6890   -0.4477 O.2     1  UNL1       -0.5170
     28 O          21.4821   71.4553    1.4346 O.3     1  UNL1       -0.2858
     29 O          21.9582   73.7010    0.8603 O.3     1  UNL1       -0.3226
     30 O          20.0243   74.1278    4.5151 O.3     1  UNL1       -0.3794
     31 O          21.9565   71.9825    4.1029 O.3     1  UNL1       -0.3775
     32 O          20.9093   75.8052    2.5067 O.3     1  UNL1       -0.3792
     33 C          20.3371   73.5756    3.2393 C.3     1  UNL1        0.1718
     34 C          21.7869   73.0802    3.2123 C.3     1  UNL1        0.1968
     35 C          20.1312   74.6519    2.1699 C.3     1  UNL1        0.1723
     36 C          22.1853   72.6428    1.7972 C.3     1  UNL1        0.2706
     37 C          20.5964   74.1241    0.8144 C.3     1  UNL1        0.1830
     38 H          19.1005   74.4299    4.4855 H       1  UNL1        0.2105
     39 H          22.8842   71.6980    4.0446 H       1  UNL1        0.2106
     40 H          21.8452   75.6081    2.3322 H       1  UNL1        0.2106
     41 O          19.3095   75.2168   -0.8146 O.co2   1  UNL1       -0.5466
     42 O          21.4568   75.9304   -0.5371 O.co2   1  UNL1       -0.5466
     43 C          20.5346   75.1862   -0.2368 C.2     1  UNL1        0.0799
@<TRIPOS>UNITY_ATOM_ATTR
41 1
charge -1
@<TRIPOS>BOND
     1     1     4    1
     2     1    24    1
     3     1     2    1
     4     1     3    2
     5    25    28    1
     6    25    24    1
     7    25    26    1
     8    25    27    2
     9     6    11    1
    10     6    12    1
    11    29    36    1
    12    29    37    1
    13     7     9    1
    14     7    13    1
    15     8    10    1
    16     8    14    1
    17     4     5    1
    18    28    36    1
    19    30    33    1
    20    30    38    1
    21    31    34    1
    22    31    39    1
    23    32    35    1
    24    32    40    1
    25    41    43   ar
    26    15    19    2
    27    42    43   ar
    28    16    22    2
    29    17    12    1
    30    17    19   ar
    31    17    20   ar
    32    18    19   ar
    33    18    22   ar
    34    18    23    1
    35     9    10    1
    36     9    11    1
    37    10    12    1
    38    11     5    1
    39    33    34    1
    40    33    35    1
    41    34    36    1
    42    35    37    1
    43    37    43    1
    44    20    21   ar
    45    21    22   ar
@<TRIPOS>MOLECULE
UDP-glaA
 43 45 0 0 0
SMALL
GASTEIGER

@<TRIPOS>ATOM
      1 P          21.0157   73.4520   -4.8698 P.3     1  UNL1        0.2189
      2 O          21.4801   74.9531   -4.4846 O.3     1  UNL1       -0.4371
      3 O          21.4863   72.9682   -6.2102 O.2     1  UNL1       -0.5170
      4 O          19.4132   73.4721   -4.6527 O.3     1  UNL1       -0.3112
      5 C          18.8945   73.0666   -3.3975 C.3     1  UNL1        0.1811
      6 O          17.0662   72.8942   -4.9474 O.3     1  UNL1       -0.3308
      7 O          15.7104   71.2077   -2.8717 O.3     1  UNL1       -0.3794
      8 O          16.6598   69.3465   -4.6240 O.3     1  UNL1       -0.3779
      9 C          17.0943   71.2792   -3.2144 C.3     1  UNL1        0.1713
     10 C          17.3458   70.5781   -4.5326 C.3     1  UNL1        0.1895
     11 C          17.4192   72.7273   -3.5564 C.3     1  UNL1        0.1764
     12 C          16.8431   71.6022   -5.5359 C.3     1  UNL1        0.2383
     13 H          15.5911   71.7021   -2.0429 H       1  UNL1        0.2105
     14 H          16.9586   68.7896   -3.8845 H       1  UNL1        0.2106
     15 O          15.9414   72.7886   -7.9348 O.2     1  UNL1       -0.2464
     16 O          19.6052   71.2660  -10.2793 O.2     1  UNL1       -0.2670
     17 N          17.5416   71.5322   -6.7875 N.ar    1  UNL1       -0.2551
     18 N          17.7662   72.0292   -9.1008 N.ar    1  UNL1       -0.2743
     19 C          17.0024   72.1617   -7.9337 C.ar    1  UNL1        0.3323
     20 C          18.7474   70.8449   -6.8708 C.ar    1  UNL1        0.0869
     21 C          19.4640   70.7279   -7.9909 C.ar    1  UNL1        0.0795
     22 C          18.9706   71.3555   -9.2328 C.ar    1  UNL1        0.2626
     23 H          17.3976   72.4733   -9.9375 H       1  UNL1        0.1734
     24 O          21.5411   72.5770   -3.6154 O.3     1  UNL1       -0.2703
     25 P          23.0355   72.1470   -3.1744 P.3     1  UNL1        0.2208
     26 O          23.9784   73.0627   -4.1170 O.3     1  UNL1       -0.4371
     27 O          23.3062   70.6729   -3.2717 O.2     1  UNL1       -0.5170
     28 O          23.2178   72.7620   -1.6937 O.3     1  UNL1       -0.2858
     29 O          21.7264   73.0618    0.1188 O.3     1  UNL1       -0.3226
     30 O          24.0916   76.4713    0.3640 O.3     1  UNL1       -0.3794
     31 O          23.1980   75.4711   -2.2257 O.3     1  UNL1       -0.3775
     32 O          22.1473   75.2641    1.9108 O.3     1  UNL1       -0.3792
     33 C          23.7530   75.1103    0.1127 C.3     1  UNL1        0.1718
     34 C          22.6811   75.0190   -0.9787 C.3     1  UNL1        0.1968
     35 C          23.2355   74.4811    1.4092 C.3     1  UNL1        0.1723
     36 C          22.1869   73.5755   -1.1354 C.3     1  UNL1        0.2706
     37 C          22.7344   73.0661    1.1286 C.3     1  UNL1        0.1830
     38 H          24.7694   76.4810    1.0612 H       1  UNL1        0.2105
     39 H          22.4890   75.3861   -2.8853 H       1  UNL1        0.2106
     40 H          21.3676   75.1025    1.3530 H       1  UNL1        0.2106
     41 O          22.7959   72.7838    3.4567 O.co2   1  UNL1       -0.5466
     42 O          21.0922   71.7687    2.3326 O.co2   1  UNL1       -0.5466
     43 C          22.1005   72.4598    2.3400 C.2     1  UNL1        0.0799
@<TRIPOS>UNITY_ATOM_ATTR
41 1
charge -1
@<TRIPOS>BOND
     1     1     4    1
     2     1    24    1
     3     1     2    1
     4     1     3    2
     5    25    28    1
     6    25    24    1
     7    25    26    1
     8    25    27    2
     9     6    11    1
    10     6    12    1
    11    29    36    1
    12    29    37    1
    13     7     9    1
    14     7    13    1
    15     8    10    1
    16     8    14    1
    17     4     5    1
    18    28    36    1
    19    30    33    1
    20    30    38    1
    21    31    34    1
    22    31    39    1
    23    32    35    1
    24    32    40    1
    25    41    43   ar
    26    15    19    2
    27    42    43   ar
    28    16    22    2
    29    17    12    1
    30    17    19   ar
    31    17    20   ar
    32    18    19   ar
    33    18    22   ar
    34    18    23    1
    35     9    10    1
    36     9    11    1
    37    10    12    1
    38    11     5    1
    39    33    34    1
    40    33    35    1
    41    34    36    1
    42    35    37    1
    43    37    43    1
    44    20    21   ar
    45    21    22   ar
@<TRIPOS>MOLECULE
UDP-glaA
 43 45 0 0 0
SMALL
GASTEIGER

@<TRIPOS>ATOM
      1 P          22.9857   72.0847   -2.9337 P.3     1  UNL1        0.2189
      2 O          23.5410   70.5917   -3.2163 O.3     1  UNL1       -0.4371
      3 O          22.9487   72.4830   -1.4872 O.2     1  UNL1       -0.5170
      4 O          21.5680   72.1268   -3.7108 O.3     1  UNL1       -0.3112
      5 C          20.7231   70.9908   -3.6409 C.3     1  UNL1        0.1811
      6 O          18.8420   72.0056   -4.7390 O.3     1  UNL1       -0.3308
      7 O          17.1746   70.8795   -2.5156 O.3     1  UNL1       -0.3794
      8 O          16.7214   69.1206   -4.5495 O.3     1  UNL1       -0.3779
      9 C          18.3177   70.3183   -3.1608 C.3     1  UNL1        0.1713
     10 C          17.9490   69.8196   -4.5421 C.3     1  UNL1        0.1895
     11 C          19.2822   71.4533   -3.4786 C.3     1  UNL1        0.1764
     12 C          17.8899   71.1117   -5.3389 C.3     1  UNL1        0.2383
     13 H          17.4668   71.2198   -1.6528 H       1  UNL1        0.2105
     14 H          16.8069   68.3725   -3.9336 H       1  UNL1        0.2106
     15 O          16.0393   70.4530   -7.3678 O.2     1  UNL1       -0.2464
     16 O          19.3236   70.4017  -10.6004 O.2     1  UNL1       -0.2670
     17 N          18.2337   70.9209   -6.7191 N.ar    1  UNL1       -0.2551
     18 N          17.6760   70.4274   -8.9761 N.ar    1  UNL1       -0.2743
     19 C          17.2289   70.5912   -7.6584 C.ar    1  UNL1        0.3323
     20 C          19.5547   71.0604   -7.1300 C.ar    1  UNL1        0.0869
     21 C          19.9651   70.9014   -8.3902 C.ar    1  UNL1        0.0795
     22 C          18.9787   70.5553   -9.4328 C.ar    1  UNL1        0.2626
     23 H          16.9710   70.1894   -9.6685 H       1  UNL1        0.1734
     24 O          23.9362   73.0066   -3.8620 O.3     1  UNL1       -0.2703
     25 P          24.1139   74.6116   -3.9332 P.3     1  UNL1        0.2208
     26 O          25.7186   74.8049   -3.9933 O.3     1  UNL1       -0.4371
     27 O          23.4411   75.3559   -2.8155 O.2     1  UNL1       -0.5170
     28 O          23.5983   75.0151   -5.4081 O.3     1  UNL1       -0.2858
     29 O          21.6232   76.1310   -6.0812 O.3     1  UNL1       -0.3226
     30 O          22.2995   73.5555   -9.2732 O.3     1  UNL1       -0.3794
     31 O          22.7090   72.6543   -6.5298 O.3     1  UNL1       -0.3775
     32 O          20.5898   75.6522   -8.7159 O.3     1  UNL1       -0.3792
     33 C          22.6040   74.4277   -8.1884 C.3     1  UNL1        0.1718
     34 C          22.0452   73.8649   -6.8771 C.3     1  UNL1        0.1968
     35 C          21.9921   75.8024   -8.4714 C.3     1  UNL1        0.1723
     36 C          22.2166   74.8750   -5.7358 C.3     1  UNL1        0.2706
     37 C          22.1850   76.7096   -7.2582 C.3     1  UNL1        0.1830
     38 H          22.6692   73.9516  -10.0807 H       1  UNL1        0.2105
     39 H          22.3296   72.3418   -5.6913 H       1  UNL1        0.2106
     40 H          20.1465   75.4704   -7.8700 H       1  UNL1        0.2106
     41 O          21.2175   78.5885   -6.2397 O.co2   1  UNL1       -0.5466
     42 O          21.2050   78.5210   -8.5183 O.co2   1  UNL1       -0.5466
     43 C          21.4895   78.0212   -7.4396 C.2     1  UNL1        0.0799
@<TRIPOS>UNITY_ATOM_ATTR
41 1
charge -1
@<TRIPOS>BOND
     1     1     4    1
     2     1    24    1
     3     1     2    1
     4     1     3    2
     5    25    28    1
     6    25    24    1
     7    25    26    1
     8    25    27    2
     9     6    11    1
    10     6    12    1
    11    29    36    1
    12    29    37    1
    13     7     9    1
    14     7    13    1
    15     8    10    1
    16     8    14    1
    17     4     5    1
    18    28    36    1
    19    30    33    1
    20    30    38    1
    21    31    34    1
    22    31    39    1
    23    32    35    1
    24    32    40    1
    25    41    43   ar
    26    15    19    2
    27    42    43   ar
    28    16    22    2
    29    17    12    1
    30    17    19   ar
    31    17    20   ar
    32    18    19   ar
    33    18    22   ar
    34    18    23    1
    35     9    10    1
    36     9    11    1
    37    10    12    1
    38    11     5    1
    39    33    34    1
    40    33    35    1
    41    34    36    1
    42    35    37    1
    43    37    43    1
    44    20    21   ar
    45    21    22   ar
@<TRIPOS>MOLECULE
UDP-glaA
 43 45 0 0 0
SMALL
GASTEIGER

@<TRIPOS>ATOM
      1 P          22.7992   71.4161   -2.7394 P.3     1  UNL1        0.2189
      2 O          23.8801   70.3045   -3.2012 O.3     1  UNL1       -0.4371
      3 O          22.4130   71.3598   -1.2903 O.2     1  UNL1       -0.5170
      4 O          21.5877   71.2445   -3.7969 O.3     1  UNL1       -0.3112
      5 C          20.5974   70.2635   -3.5393 C.3     1  UNL1        0.1811
      6 O          18.9500   71.6557   -4.5986 O.3     1  UNL1       -0.3308
      7 O          17.0449   70.6765   -2.5004 O.3     1  UNL1       -0.3794
      8 O          16.3717   69.1650   -4.6679 O.3     1  UNL1       -0.3779
      9 C          18.0987   69.9761   -3.1611 C.3     1  UNL1        0.1713
     10 C          17.6980   69.6441   -4.5830 C.3     1  UNL1        0.1895
     11 C          19.2495   70.9509   -3.3736 C.3     1  UNL1        0.1764
     12 C          17.8824   70.9797   -5.2830 C.3     1  UNL1        0.2383
     13 H          17.3610   70.9017   -1.6088 H       1  UNL1        0.2105
     14 H          16.3104   68.3724   -4.1074 H       1  UNL1        0.2106
     15 O          16.0237   70.5588   -7.3671 O.2     1  UNL1       -0.2464
     16 O          19.3510   70.4159  -10.5526 O.2     1  UNL1       -0.2670
     17 N          18.2351   70.8297   -6.6660 N.ar    1  UNL1       -0.2551
     18 N          17.6818   70.4874   -8.9519 N.ar    1  UNL1       -0.2743
     19 C          17.2251   70.6213   -7.6341 C.ar    1  UNL1        0.3323
     20 C          19.5698   70.8894   -7.0513 C.ar    1  UNL1        0.0869
     21 C          19.9891   70.7603   -8.3120 C.ar    1  UNL1        0.0795
     22 C          18.9981   70.5391   -9.3837 C.ar    1  UNL1        0.2626
     23 H          16.9732   70.3362   -9.6648 H       1  UNL1        0.1734
     24 O          23.4885   72.8048   -3.1992 O.3     1  UNL1       -0.2703
     25 P          23.1147   73.8303   -4.3913 P.3     1  UNL1        0.2208
     26 O          21.8621   74.6580   -3.7896 O.3     1  UNL1       -0.4371
     27 O          22.8432   73.1676   -5.7115 O.2     1  UNL1       -0.5170
     28 O          24.3311   74.8904   -4.4152 O.3     1  UNL1       -0.2858
     29 O          26.6469   74.6431   -3.9965 O.3     1  UNL1       -0.3226
     30 O          25.8870   78.4362   -2.4752 O.3     1  UNL1       -0.3794
     31 O          23.9951   76.2594   -2.0412 O.3     1  UNL1       -0.3775
     32 O          28.1179   76.8853   -2.9732 O.3     1  UNL1       -0.3792
     33 C          25.7668   77.3059   -3.3345 C.3     1  UNL1        0.1718
     34 C          25.3160   76.0758   -2.5396 C.3     1  UNL1        0.1968
     35 C          27.1234   77.0368   -3.9915 C.3     1  UNL1        0.1723
     36 C          25.3494   74.8191   -3.4182 C.3     1  UNL1        0.2706
     37 C          27.0527   75.7464   -4.8051 C.3     1  UNL1        0.1830
     38 H          26.1760   79.1887   -3.0191 H       1  UNL1        0.2105
     39 H          23.7505   75.4542   -1.5548 H       1  UNL1        0.2106
     40 H          27.9929   76.0212   -2.5455 H       1  UNL1        0.2106
     41 O          29.3810   76.0068   -4.6838 O.co2   1  UNL1       -0.5466
     42 O          28.5754   74.6057   -6.2916 O.co2   1  UNL1       -0.5466
     43 C          28.3912   75.3750   -5.3596 C.2     1  UNL1        0.0799
@<TRIPOS>UNITY_ATOM_ATTR
41 1
charge -1
@<TRIPOS>BOND
     1     1     4    1
     2     1    24    1
     3     1     2    1
     4     1     3    2
     5    25    28    1
     6    25    24    1
     7    25    26    1
     8    25    27    2
     9     6    11    1
    10     6    12    1
    11    29    36    1
    12    29    37    1
    13     7     9    1
    14     7    13    1
    15     8    10    1
    16     8    14    1
    17     4     5    1
    18    28    36    1
    19    30    33    1
    20    30    38    1
    21    31    34    1
    22    31    39    1
    23    32    35    1
    24    32    40    1
    25    41    43   ar
    26    15    19    2
    27    42    43   ar
    28    16    22    2
    29    17    12    1
    30    17    19   ar
    31    17    20   ar
    32    18    19   ar
    33    18    22   ar
    34    18    23    1
    35     9    10    1
    36     9    11    1
    37    10    12    1
    38    11     5    1
    39    33    34    1
    40    33    35    1
    41    34    36    1
    42    35    37    1
    43    37    43    1
    44    20    21   ar
    45    21    22   ar
@<TRIPOS>MOLECULE
UDP-glaA
 43 45 0 0 0
SMALL
GASTEIGER

@<TRIPOS>ATOM
      1 P          22.1728   73.8579   -6.4213 P.3     1  UNL1        0.2189
      2 O          23.0402   75.1869   -6.7357 O.3     1  UNL1       -0.4371
      3 O          22.6762   72.6042   -7.0748 O.2     1  UNL1       -0.5170
      4 O          20.6577   74.2845   -6.7927 O.3     1  UNL1       -0.3112
      5 C          20.1209   75.4576   -6.2054 C.3     1  UNL1        0.1811
      6 O          18.0238   74.5737   -6.9769 O.3     1  UNL1       -0.3308
      7 O          17.2035   74.5096   -4.0934 O.3     1  UNL1       -0.3794
      8 O          17.8597   71.9088   -4.5838 O.3     1  UNL1       -0.3779
      9 C          18.4827   74.2570   -4.6743 C.3     1  UNL1        0.1713
     10 C          18.4911   72.9066   -5.3591 C.3     1  UNL1        0.1895
     11 C          18.6621   75.2108   -5.8482 C.3     1  UNL1        0.1764
     12 C          17.7458   73.2023   -6.6495 C.3     1  UNL1        0.2383
     13 H          17.2336   75.3991   -3.7016 H       1  UNL1        0.2105
     14 H          18.3297   71.8576   -3.7337 H       1  UNL1        0.2106
     15 O          16.8307   70.5677   -7.0931 O.2     1  UNL1       -0.2464
     16 O          19.4648   70.0892  -10.8443 O.2     1  UNL1       -0.2670
     17 N          18.1751   72.3668   -7.7344 N.ar    1  UNL1       -0.2551
     18 N          18.1434   70.3310   -8.9604 N.ar    1  UNL1       -0.2743
     19 C          17.6549   71.0581   -7.8669 C.ar    1  UNL1        0.3323
     20 C          19.1022   72.8458   -8.6533 C.ar    1  UNL1        0.0869
     21 C          19.5577   72.1403   -9.6909 C.ar    1  UNL1        0.0795
     22 C          19.0655   70.7643   -9.9005 C.ar    1  UNL1        0.2626
     23 H          17.7837   69.3873   -9.0752 H       1  UNL1        0.1734
     24 O          22.1516   73.8130   -4.8049 O.3     1  UNL1       -0.2703
     25 P          21.9992   72.5720   -3.7806 P.3     1  UNL1        0.2208
     26 O          23.5126   72.0189   -3.6400 O.3     1  UNL1       -0.4371
     27 O          20.9985   71.5378   -4.2105 O.2     1  UNL1       -0.5170
     28 O          21.6801   73.2559   -2.3542 O.3     1  UNL1       -0.2858
     29 O          21.1860   71.3947   -0.9790 O.3     1  UNL1       -0.3226
     30 O          21.2345   74.5168    1.7650 O.3     1  UNL1       -0.3794
     31 O          20.0117   74.8695   -0.8591 O.3     1  UNL1       -0.3775
     32 O          21.0895   71.7602    1.8663 O.3     1  UNL1       -0.3792
     33 C          21.5971   73.7615    0.6125 C.3     1  UNL1        0.1718
     34 C          20.3947   73.6067   -0.3250 C.3     1  UNL1        0.1968
     35 C          22.0938   72.3838    1.0593 C.3     1  UNL1        0.1723
     36 C          20.7260   72.6540   -1.4804 C.3     1  UNL1        0.2706
     37 C          22.3527   71.5095   -0.1658 C.3     1  UNL1        0.1830
     38 H          22.0231   74.5872    2.3296 H       1  UNL1        0.2105
     39 H          19.2558   74.7203   -1.4517 H       1  UNL1        0.2106
     40 H          20.3647   71.4693    1.2874 H       1  UNL1        0.2106
     41 O          21.6100   69.4096    0.5710 O.co2   1  UNL1       -0.5466
     42 O          23.8508   69.6585    0.2332 O.co2   1  UNL1       -0.5466
     43 C          22.7157   70.1124    0.2259 C.2     1  UNL1        0.0799
@<TRIPOS>UNITY_ATOM_ATTR
41 1
charge -1
@<TRIPOS>BOND
     1     1     4    1
     2     1    24    1
     3     1     2    1
     4     1     3    2
     5    25    28    1
     6    25    24    1
     7    25    26    1
     8    25    27    2
     9     6    11    1
    10     6    12    1
    11    29    36    1
    12    29    37    1
    13     7     9    1
    14     7    13    1
    15     8    10    1
    16     8    14    1
    17     4     5    1
    18    28    36    1
    19    30    33    1
    20    30    38    1
    21    31    34    1
    22    31    39    1
    23    32    35    1
    24    32    40    1
    25    41    43   ar
    26    15    19    2
    27    42    43   ar
    28    16    22    2
    29    17    12    1
    30    17    19   ar
    31    17    20   ar
    32    18    19   ar
    33    18    22   ar
    34    18    23    1
    35     9    10    1
    36     9    11    1
    37    10    12    1
    38    11     5    1
    39    33    34    1
    40    33    35    1
    41    34    36    1
    42    35    37    1
    43    37    43    1
    44    20    21   ar
    45    21    22   ar
@<TRIPOS>MOLECULE
UDP-glaA
 43 45 0 0 0
SMALL
GASTEIGER

@<TRIPOS>ATOM
      1 P          20.0468   71.2931   -3.9043 P.3     1  UNL1        0.2189
      2 O          20.6843   69.8162   -3.7319 O.3     1  UNL1       -0.4371
      3 O          18.7703   71.5235   -3.1496 O.2     1  UNL1       -0.5170
      4 O          19.9627   71.4967   -5.5064 O.3     1  UNL1       -0.3112
      5 C          18.8885   70.8966   -6.2101 C.3     1  UNL1        0.1811
      6 O          18.7309   73.2172   -6.8135 O.3     1  UNL1       -0.3308
      7 O          16.2709   72.4576   -8.3506 O.3     1  UNL1       -0.3794
      8 O          18.1628   72.6383  -10.3061 O.3     1  UNL1       -0.3779
      9 C          17.4797   71.7226   -8.1600 C.3     1  UNL1        0.1713
     10 C          18.5920   72.3142   -8.9998 C.3     1  UNL1        0.1895
     11 C          17.9731   71.9891   -6.7440 C.3     1  UNL1        0.1764
     12 C          18.9798   73.5406   -8.1914 C.3     1  UNL1        0.2383
     13 H          15.5994   72.0679   -7.7651 H       1  UNL1        0.2105
     14 H          17.8301   71.8213  -10.7160 H       1  UNL1        0.2106
     15 O          21.0533   71.6679   -8.6025 O.2     1  UNL1       -0.2464
     16 O          24.2560   74.9772   -8.7756 O.2     1  UNL1       -0.2670
     17 N          20.3641   73.8850   -8.3477 N.ar    1  UNL1       -0.2551
     18 N          22.6468   73.3170   -8.6879 N.ar    1  UNL1       -0.2743
     19 C          21.3268   72.8683   -8.5485 C.ar    1  UNL1        0.3323
     20 C          20.7563   75.2182   -8.3011 C.ar    1  UNL1        0.0869
     21 C          22.0188   75.6300   -8.4362 C.ar    1  UNL1        0.0795
     22 C          23.0854   74.6315   -8.6484 C.ar    1  UNL1        0.2626
     23 H          23.3559   72.6034   -8.8326 H       1  UNL1        0.1734
     24 O          21.2662   72.2660   -3.4780 O.3     1  UNL1       -0.2703
     25 P          22.8208   71.9461   -3.1727 P.3     1  UNL1        0.2208
     26 O          23.6065   72.8571   -4.2539 O.3     1  UNL1       -0.4371
     27 O          23.1704   70.4863   -3.2212 O.2     1  UNL1       -0.5170
     28 O          23.1129   72.6547   -1.7526 O.3     1  UNL1       -0.2858
     29 O          21.6779   73.0439    0.0883 O.3     1  UNL1       -0.3226
     30 O          24.2045   76.3412    0.2411 O.3     1  UNL1       -0.3794
     31 O          23.2076   75.3558   -2.3165 O.3     1  UNL1       -0.3775
     32 O          22.2409   75.2436    1.8441 O.3     1  UNL1       -0.3792
     33 C          23.7972   74.9949    0.0135 C.3     1  UNL1        0.1718
     34 C          22.6981   74.9420   -1.0531 C.3     1  UNL1        0.1968
     35 C          23.2800   74.4050    1.3284 C.3     1  UNL1        0.1723
     36 C          22.1338   73.5217   -1.1817 C.3     1  UNL1        0.2706
     37 C          22.7072   73.0120    1.0757 C.3     1  UNL1        0.1830
     38 H          24.8974   76.3268    0.9231 H       1  UNL1        0.2105
     39 H          22.4810   75.2969   -2.9594 H       1  UNL1        0.2106
     40 H          21.4423   75.1126    1.3054 H       1  UNL1        0.2106
     41 O          22.7395   72.8532    3.4161 O.co2   1  UNL1       -0.5466
     42 O          21.0870   71.7269    2.3219 O.co2   1  UNL1       -0.5466
     43 C          22.0729   72.4494    2.3078 C.2     1  UNL1        0.0799
@<TRIPOS>UNITY_ATOM_ATTR
41 1
charge -1
@<TRIPOS>BOND
     1     1     4    1
     2     1    24    1
     3     1     2    1
     4     1     3    2
     5    25    28    1
     6    25    24    1
     7    25    26    1
     8    25    27    2
     9     6    11    1
    10     6    12    1
    11    29    36    1
    12    29    37    1
    13     7     9    1
    14     7    13    1
    15     8    10    1
    16     8    14    1
    17     4     5    1
    18    28    36    1
    19    30    33    1
    20    30    38    1
    21    31    34    1
    22    31    39    1
    23    32    35    1
    24    32    40    1
    25    41    43   ar
    26    15    19    2
    27    42    43   ar
    28    16    22    2
    29    17    12    1
    30    17    19   ar
    31    17    20   ar
    32    18    19   ar
    33    18    22   ar
    34    18    23    1
    35     9    10    1
    36     9    11    1
    37    10    12    1
    38    11     5    1
    39    33    34    1
    40    33    35    1
    41    34    36    1
    42    35    37    1
    43    37    43    1
    44    20    21   ar
    45    21    22   ar
@<TRIPOS>MOLECULE
UDP-glaA
 43 45 0 0 0
SMALL
GASTEIGER

@<TRIPOS>ATOM
      1 P          21.8281   74.7586   -5.9409 P.3     1  UNL1        0.2189
      2 O          22.0183   76.3602   -5.8151 O.3     1  UNL1       -0.4371
      3 O          22.7852   74.0790   -6.8759 O.2     1  UNL1       -0.5170
      4 O          20.2589   74.5786   -6.2881 O.3     1  UNL1       -0.3112
      5 C          19.3827   75.6666   -6.0477 C.3     1  UNL1        0.1811
      6 O          17.4141   74.3832   -6.5497 O.3     1  UNL1       -0.3308
      7 O          17.0376   74.1494   -3.5841 O.3     1  UNL1       -0.3794
      8 O          18.1189   71.7334   -4.2394 O.3     1  UNL1       -0.3779
      9 C          18.2466   74.1590   -4.3431 C.3     1  UNL1        0.1713
     10 C          18.4249   72.8393   -5.0634 C.3     1  UNL1        0.1895
     11 C          18.0666   75.1322   -5.5007 C.3     1  UNL1        0.1764
     12 C          17.4615   72.9831   -6.2292 C.3     1  UNL1        0.2383
     13 H          16.9464   75.0260   -3.1732 H       1  UNL1        0.2105
     14 H          18.7048   71.7752   -3.4641 H       1  UNL1        0.2106
     15 O          16.5031   70.4258   -6.9482 O.2     1  UNL1       -0.2464
     16 O          19.1796   70.2755  -10.6968 O.2     1  UNL1       -0.2670
     17 N          17.8900   72.2529   -7.3879 N.ar    1  UNL1       -0.2551
     18 N          17.8369   70.3524   -8.8141 N.ar    1  UNL1       -0.2743
     19 C          17.3471   70.9751   -7.6585 C.ar    1  UNL1        0.3323
     20 C          18.8387   72.8035   -8.2424 C.ar    1  UNL1        0.0869
     21 C          19.2952   72.1973   -9.3406 C.ar    1  UNL1        0.0795
     22 C          18.7801   70.8597   -9.6943 C.ar    1  UNL1        0.2626
     23 H          17.4611   69.4326   -9.0281 H       1  UNL1        0.1734
     24 O          21.9195   74.2611   -4.4048 O.3     1  UNL1       -0.2703
     25 P          22.1729   72.7924   -3.7793 P.3     1  UNL1        0.2208
     26 O          23.7753   72.6090   -3.9002 O.3     1  UNL1       -0.4371
     27 O          21.3730   71.6998   -4.4292 O.2     1  UNL1       -0.5170
     28 O          21.9000   72.9684   -2.1987 O.3     1  UNL1       -0.2858
     29 O          22.8844   73.4805   -0.1087 O.3     1  UNL1       -0.3226
     30 O          21.5403   69.5929    0.4908 O.3     1  UNL1       -0.3794
     31 O          22.7837   70.3579   -2.0340 O.3     1  UNL1       -0.3775
     32 O          22.6112   71.6070    2.0486 O.3     1  UNL1       -0.3792
     33 C          21.5561   70.9251   -0.0146 C.3     1  UNL1        0.1718
     34 C          22.8128   71.1614   -0.8591 C.3     1  UNL1        0.1968
     35 C          21.5254   71.9022    1.1638 C.3     1  UNL1        0.1723
     36 C          22.9258   72.6364   -1.2640 C.3     1  UNL1        0.2706
     37 C          21.6851   73.3313    0.6498 C.3     1  UNL1        0.1830
     38 H          20.7308   69.4894    1.0196 H       1  UNL1        0.2105
     39 H          23.5919   70.5481   -2.5395 H       1  UNL1        0.2106
     40 H          23.4376   71.9087    1.6349 H       1  UNL1        0.2106
     41 O          20.9818   73.9480    2.8012 O.co2   1  UNL1       -0.5466
     42 O          22.5083   75.2993    1.7809 O.co2   1  UNL1       -0.5466
     43 C          21.7908   74.3095    1.7763 C.2     1  UNL1        0.0799
@<TRIPOS>UNITY_ATOM_ATTR
41 1
charge -1
@<TRIPOS>BOND
     1     1     4    1
     2     1    24    1
     3     1     2    1
     4     1     3    2
     5    25    28    1
     6    25    24    1
     7    25    26    1
     8    25    27    2
     9     6    11    1
    10     6    12    1
    11    29    36    1
    12    29    37    1
    13     7     9    1
    14     7    13    1
    15     8    10    1
    16     8    14    1
    17     4     5    1
    18    28    36    1
    19    30    33    1
    20    30    38    1
    21    31    34    1
    22    31    39    1
    23    32    35    1
    24    32    40    1
    25    41    43   ar
    26    15    19    2
    27    42    43   ar
    28    16    22    2
    29    17    12    1
    30    17    19   ar
    31    17    20   ar
    32    18    19   ar
    33    18    22   ar
    34    18    23    1
    35     9    10    1
    36     9    11    1
    37    10    12    1
    38    11     5    1
    39    33    34    1
    40    33    35    1
    41    34    36    1
    42    35    37    1
    43    37    43    1
    44    20    21   ar
    45    21    22   ar
@<TRIPOS>MOLECULE
UDP-glaA
 43 45 0 0 0
SMALL
GASTEIGER

@<TRIPOS>ATOM
      1 P          21.5430   73.1376   -6.2676 P.3     1  UNL1        0.2189
      2 O          21.3024   74.7223   -6.0481 O.3     1  UNL1       -0.4371
      3 O          22.7780   72.7865   -7.0446 O.2     1  UNL1       -0.5170
      4 O          20.1465   72.6143   -6.8933 O.3     1  UNL1       -0.3112
      5 C          19.7820   71.2586   -6.6972 C.3     1  UNL1        0.1811
      6 O          17.5275   71.0157   -7.4923 O.3     1  UNL1       -0.3308
      7 O          18.7156   70.8192  -10.2384 O.3     1  UNL1       -0.3794
      8 O          17.8314   73.3974  -10.1551 O.3     1  UNL1       -0.3779
      9 C          19.1307   71.6167   -9.1296 C.3     1  UNL1        0.1713
     10 C          18.1805   72.7792   -8.9338 C.3     1  UNL1        0.1895
     11 C          18.9091   70.8065   -7.8592 C.3     1  UNL1        0.1764
     12 C          16.9959   72.1086   -8.2592 C.3     1  UNL1        0.2383
     13 H          19.3294   70.0676  -10.3007 H       1  UNL1        0.2105
     14 H          18.6544   73.7027  -10.5744 H       1  UNL1        0.2106
     15 O          14.8987   73.8194   -9.0656 O.2     1  UNL1       -0.2464
     16 O          14.3639   75.4758   -4.7984 O.2     1  UNL1       -0.2670
     17 N          16.2907   72.9969   -7.3800 N.ar    1  UNL1       -0.2551
     18 N          14.6341   74.6434   -6.9403 N.ar    1  UNL1       -0.2743
     19 C          15.2535   73.8152   -7.8855 C.ar    1  UNL1        0.3323
     20 C          16.6289   73.0513   -6.0324 C.ar    1  UNL1        0.0869
     21 C          16.0285   73.8460   -5.1437 C.ar    1  UNL1        0.0795
     22 C          14.9358   74.7328   -5.5902 C.ar    1  UNL1        0.2626
     23 H          13.8860   75.2410   -7.2813 H       1  UNL1        0.1734
     24 O          21.5070   72.5534   -4.7601 O.3     1  UNL1       -0.2703
     25 P          22.6277   72.5550   -3.5954 P.3     1  UNL1        0.2208
     26 O          23.6070   73.7686   -4.0244 O.3     1  UNL1       -0.4371
     27 O          23.3210   71.2362   -3.4058 O.2     1  UNL1       -0.5170
     28 O          21.8557   73.0966   -2.2859 O.3     1  UNL1       -0.2858
     29 O          19.8659   72.3155   -1.2711 O.3     1  UNL1       -0.3226
     30 O          21.1550   68.9593   -3.3577 O.3     1  UNL1       -0.3794
     31 O          23.0636   70.6396   -1.9296 O.3     1  UNL1       -0.3775
     32 O          18.8949   69.7021   -1.9539 O.3     1  UNL1       -0.3792
     33 C          20.9396   70.3385   -3.0717 C.3     1  UNL1        0.1718
     34 C          21.6516   70.7325   -1.7732 C.3     1  UNL1        0.1968
     35 C          19.4346   70.5879   -2.9404 C.3     1  UNL1        0.1723
     36 C          21.2862   72.1656   -1.3666 C.3     1  UNL1        0.2706
     37 C          19.1900   72.0278   -2.4942 C.3     1  UNL1        0.1830
     38 H          20.6855   68.7543   -4.1842 H       1  UNL1        0.2105
     39 H          23.4702   70.9068   -1.0880 H       1  UNL1        0.2106
     40 H          19.1683   70.0151   -1.0751 H       1  UNL1        0.2106
     41 O          17.5691   73.4608   -1.5871 O.co2   1  UNL1       -0.5466
     42 O          16.8282   71.5289   -2.5440 O.co2   1  UNL1       -0.5466
     43 C          17.7400   72.2793   -2.2277 C.2     1  UNL1        0.0799
@<TRIPOS>UNITY_ATOM_ATTR
41 1
charge -1
@<TRIPOS>BOND
     1     1     4    1
     2     1    24    1
     3     1     2    1
     4     1     3    2
     5    25    28    1
     6    25    24    1
     7    25    26    1
     8    25    27    2
     9     6    11    1
    10     6    12    1
    11    29    36    1
    12    29    37    1
    13     7     9    1
    14     7    13    1
    15     8    10    1
    16     8    14    1
    17     4     5    1
    18    28    36    1
    19    30    33    1
    20    30    38    1
    21    31    34    1
    22    31    39    1
    23    32    35    1
    24    32    40    1
    25    41    43   ar
    26    15    19    2
    27    42    43   ar
    28    16    22    2
    29    17    12    1
    30    17    19   ar
    31    17    20   ar
    32    18    19   ar
    33    18    22   ar
    34    18    23    1
    35     9    10    1
    36     9    11    1
    37    10    12    1
    38    11     5    1
    39    33    34    1
    40    33    35    1
    41    34    36    1
    42    35    37    1
    43    37    43    1
    44    20    21   ar
    45    21    22   ar
@<TRIPOS>MOLECULE
UDP-glaA
 43 45 0 0 0
SMALL
GASTEIGER

@<TRIPOS>ATOM
      1 P          19.9673   70.6282   -3.9653 P.3     1  UNL1        0.2189
      2 O          20.8352   69.4160   -3.3370 O.3     1  UNL1       -0.4371
      3 O          18.7726   71.0377   -3.1546 O.2     1  UNL1       -0.5170
      4 O          19.6583   70.1435   -5.4769 O.3     1  UNL1       -0.3112
      5 C          19.6858   71.1070   -6.5162 C.3     1  UNL1        0.1811
      6 O          17.4142   71.2848   -7.2795 O.3     1  UNL1       -0.3308
      7 O          18.4380   70.3835   -9.9499 O.3     1  UNL1       -0.3794
      8 O          18.1891   73.0781  -10.2860 O.3     1  UNL1       -0.3779
      9 C          19.0631   71.2234   -8.9795 C.3     1  UNL1        0.1713
     10 C          18.4199   72.5941   -8.9791 C.3     1  UNL1        0.1895
     11 C          18.6957   70.6986   -7.5977 C.3     1  UNL1        0.1764
     12 C          17.1319   72.3384   -8.2151 C.3     1  UNL1        0.2383
     13 H          18.8552   69.5074   -9.8867 H       1  UNL1        0.2105
     14 H          19.0476   73.1095  -10.7423 H       1  UNL1        0.2106
     15 O          14.7638   73.7621   -8.7984 O.2     1  UNL1       -0.2464
     16 O          15.5108   76.7650   -5.3832 O.2     1  UNL1       -0.2670
     17 N          16.6831   73.4953   -7.4944 N.ar    1  UNL1       -0.2551
     18 N          15.1376   75.2568   -7.0977 N.ar    1  UNL1       -0.2743
     19 C          15.4796   74.1377   -7.8683 C.ar    1  UNL1        0.3323
     20 C          17.4329   73.9826   -6.4296 C.ar    1  UNL1        0.0869
     21 C          17.0930   75.0505   -5.7044 C.ar    1  UNL1        0.0795
     22 C          15.8510   75.7792   -6.0301 C.ar    1  UNL1        0.2626
     23 H          14.2765   75.7349   -7.3489 H       1  UNL1        0.1734
     24 O          21.0698   71.7924   -4.1754 O.3     1  UNL1       -0.2703
     25 P          22.5310   72.0003   -3.5164 P.3     1  UNL1        0.2208
     26 O          23.2698   72.9933   -4.5576 O.3     1  UNL1       -0.4371
     27 O          23.2723   70.7223   -3.2461 O.2     1  UNL1       -0.5170
     28 O          22.2642   72.9058   -2.2076 O.3     1  UNL1       -0.2858
     29 O          21.3890   71.3456   -0.6588 O.3     1  UNL1       -0.3226
     30 O          21.8371   74.7463    1.6894 O.3     1  UNL1       -0.3794
     31 O          20.8259   74.9520   -1.0384 O.3     1  UNL1       -0.3775
     32 O          21.2148   72.0879    2.1084 O.3     1  UNL1       -0.3792
     33 C          22.1213   73.7986    0.6640 C.3     1  UNL1        0.1718
     34 C          20.9587   73.7234   -0.3314 C.3     1  UNL1        0.1968
     35 C          22.3506   72.4277    1.3063 C.3     1  UNL1        0.1723
     36 C          21.1783   72.5876   -1.3384 C.3     1  UNL1        0.2706
     37 C          22.5159   71.3714    0.2159 C.3     1  UNL1        0.1830
     38 H          22.5969   74.7587    2.2962 H       1  UNL1        0.2105
     39 H          20.0862   74.8537   -1.6612 H       1  UNL1        0.2106
     40 H          20.4806   71.8476    1.5182 H       1  UNL1        0.2106
     41 O          23.4094   69.9949    1.8925 O.co2   1  UNL1       -0.5466
     42 O          22.0517   69.0058    0.3512 O.co2   1  UNL1       -0.5466
     43 C          22.6130   69.9964    0.7964 C.2     1  UNL1        0.0799
@<TRIPOS>UNITY_ATOM_ATTR
41 1
charge -1
@<TRIPOS>BOND
     1     1     4    1
     2     1    24    1
     3     1     2    1
     4     1     3    2
     5    25    28    1
     6    25    24    1
     7    25    26    1
     8    25    27    2
     9     6    11    1
    10     6    12    1
    11    29    36    1
    12    29    37    1
    13     7     9    1
    14     7    13    1
    15     8    10    1
    16     8    14    1
    17     4     5    1
    18    28    36    1
    19    30    33    1
    20    30    38    1
    21    31    34    1
    22    31    39    1
    23    32    35    1
    24    32    40    1
    25    41    43   ar
    26    15    19    2
    27    42    43   ar
    28    16    22    2
    29    17    12    1
    30    17    19   ar
    31    17    20   ar
    32    18    19   ar
    33    18    22   ar
    34    18    23    1
    35     9    10    1
    36     9    11    1
    37    10    12    1
    38    11     5    1
    39    33    34    1
    40    33    35    1
    41    34    36    1
    42    35    37    1
    43    37    43    1
    44    20    21   ar
    45    21    22   ar
@<TRIPOS>MOLECULE
UDP-glaA
 43 45 0 0 0
SMALL
GASTEIGER

@<TRIPOS>ATOM
      1 P          22.2357   71.4484   -3.3215 P.3     1  UNL1        0.2189
      2 O          20.8051   70.7229   -3.1111 O.3     1  UNL1       -0.4371
      3 O          23.4268   70.5416   -3.2163 O.2     1  UNL1       -0.5170
      4 O          22.2012   72.6869   -2.2820 O.3     1  UNL1       -0.3112
      5 C          22.3229   72.4123   -0.8968 C.3     1  UNL1        0.1811
      6 O          21.1809   72.5757    1.2112 O.3     1  UNL1       -0.3308
      7 O          19.0676   74.1077   -0.2649 O.3     1  UNL1       -0.3794
      8 O          20.4853   76.0846    0.9670 O.3     1  UNL1       -0.3779
      9 C          20.4827   74.1110   -0.4526 C.3     1  UNL1        0.1713
     10 C          21.1586   74.8807    0.6624 C.3     1  UNL1        0.1895
     11 C          20.9912   72.6949   -0.2161 C.3     1  UNL1        0.1764
     12 C          21.1159   73.8821    1.8065 C.3     1  UNL1        0.2383
     13 H          18.6818   73.5718   -0.9787 H       1  UNL1        0.2105
     14 H          20.4614   76.6201    0.1553 H       1  UNL1        0.2106
     15 O          21.0279   73.2351    4.5541 O.2     1  UNL1       -0.2464
     16 O          25.4070   74.5251    5.1852 O.2     1  UNL1       -0.2670
     17 N          22.2182   74.0382    2.7119 N.ar    1  UNL1       -0.2551
     18 N          23.2084   73.8784    4.8666 N.ar    1  UNL1       -0.2743
     19 C          22.0699   73.6844    4.0734 C.ar    1  UNL1        0.3323
     20 C          23.4304   74.5375    2.2485 C.ar    1  UNL1        0.0869
     21 C          24.5069   74.7162    3.0174 C.ar    1  UNL1        0.0795
     22 C          24.4354   74.3721    4.4513 C.ar    1  UNL1        0.2626
     23 H          23.1247   73.6313    5.8490 H       1  UNL1        0.1734
     24 O          22.0664   72.1741   -4.7567 O.3     1  UNL1       -0.2703
     25 P          21.2981   73.5338   -5.1732 P.3     1  UNL1        0.2208
     26 O          22.5036   74.5909   -5.3861 O.3     1  UNL1       -0.4371
     27 O          20.2520   73.9760   -4.1904 O.2     1  UNL1       -0.5170
     28 O          20.7381   73.2482   -6.6595 O.3     1  UNL1       -0.2858
     29 O          19.4502   71.2803   -6.3993 O.3     1  UNL1       -0.3226
     30 O          18.6711   72.3152  -10.3491 O.3     1  UNL1       -0.3794
     31 O          21.3649   72.5568   -9.2579 O.3     1  UNL1       -0.3775
     32 O          17.7062   70.4729   -8.5312 O.3     1  UNL1       -0.3792
     33 C          18.9532   72.4959   -8.9642 C.3     1  UNL1        0.1718
     34 C          20.3037   71.8659   -8.6072 C.3     1  UNL1        0.1968
     35 C          17.8376   71.8442   -8.1424 C.3     1  UNL1        0.1723
     36 C          20.5370   71.9033   -7.0918 C.3     1  UNL1        0.2706
     37 C          18.1925   71.9023   -6.6582 C.3     1  UNL1        0.1830
     38 H          17.8084   72.7262  -10.5288 H       1  UNL1        0.2105
     39 H          22.1977   72.1298   -8.9951 H       1  UNL1        0.2106
     40 H          18.4589   69.9756   -8.1689 H       1  UNL1        0.2106
     41 O          17.3801   71.4215   -4.5105 O.co2   1  UNL1       -0.5466
     42 O          16.3219   70.4265   -6.2676 O.co2   1  UNL1       -0.5466
     43 C          17.1930   71.1626   -5.8272 C.2     1  UNL1        0.0799
@<TRIPOS>UNITY_ATOM_ATTR
41 1
charge -1
@<TRIPOS>BOND
     1     1     4    1
     2     1    24    1
     3     1     2    1
     4     1     3    2
     5    25    28    1
     6    25    24    1
     7    25    26    1
     8    25    27    2
     9     6    11    1
    10     6    12    1
    11    29    36    1
    12    29    37    1
    13     7     9    1
    14     7    13    1
    15     8    10    1
    16     8    14    1
    17     4     5    1
    18    28    36    1
    19    30    33    1
    20    30    38    1
    21    31    34    1
    22    31    39    1
    23    32    35    1
    24    32    40    1
    25    41    43   ar
    26    15    19    2
    27    42    43   ar
    28    16    22    2
    29    17    12    1
    30    17    19   ar
    31    17    20   ar
    32    18    19   ar
    33    18    22   ar
    34    18    23    1
    35     9    10    1
    36     9    11    1
    37    10    12    1
    38    11     5    1
    39    33    34    1
    40    33    35    1
    41    34    36    1
    42    35    37    1
    43    37    43    1
    44    20    21   ar
    45    21    22   ar
@<TRIPOS>MOLECULE
UDP-glaA
 43 45 0 0 0
SMALL
GASTEIGER

@<TRIPOS>ATOM
      1 P          22.2821   71.8927   -3.0691 P.3     1  UNL1        0.2189
      2 O          21.4282   73.1893   -2.6139 O.3     1  UNL1       -0.4371
      3 O          23.5094   72.1951   -3.8780 O.2     1  UNL1       -0.5170
      4 O          21.1891   70.9364   -3.7808 O.3     1  UNL1       -0.3112
      5 C          20.2340   71.5265   -4.6461 C.3     1  UNL1        0.1811
      6 O          17.9665   72.3216   -4.6188 O.3     1  UNL1       -0.3308
      7 O          17.2392   69.6451   -3.4790 O.3     1  UNL1       -0.3794
      8 O          16.5425   69.3845   -6.1025 O.3     1  UNL1       -0.3779
      9 C          18.2294   69.9729   -4.4536 C.3     1  UNL1        0.1713
     10 C          17.5743   70.2939   -5.7804 C.3     1  UNL1        0.1895
     11 C          18.8422   71.3129   -4.0683 C.3     1  UNL1        0.1764
     12 C          17.0582   71.7032   -5.5450 C.3     1  UNL1        0.2383
     13 H          17.7015   69.4859   -2.6385 H       1  UNL1        0.2105
     14 H          16.9340   68.4944   -6.1274 H       1  UNL1        0.2106
     15 O          19.0737   71.6843   -7.5230 O.2     1  UNL1       -0.2464
     16 O          16.8005   74.7310  -10.1285 O.2     1  UNL1       -0.2670
     17 N          17.0186   72.4811   -6.7503 N.ar    1  UNL1       -0.2551
     18 N          17.9407   73.2019   -8.8189 N.ar    1  UNL1       -0.2743
     19 C          18.0826   72.4000   -7.6787 C.ar    1  UNL1        0.3323
     20 C          15.9338   73.3134   -7.0027 C.ar    1  UNL1        0.0869
     21 C          15.8129   74.0714   -8.0948 C.ar    1  UNL1        0.0795
     22 C          16.8810   74.0456   -9.1137 C.ar    1  UNL1        0.2626
     23 H          18.6940   73.1601   -9.4999 H       1  UNL1        0.1734
     24 O          22.5681   71.1372   -1.6681 O.3     1  UNL1       -0.2703
     25 P          21.5768   70.3371   -0.6733 P.3     1  UNL1        0.2208
     26 O          22.5588   69.2807    0.0586 O.3     1  UNL1       -0.4371
     27 O          20.3924   69.7133   -1.3544 O.2     1  UNL1       -0.5170
     28 O          21.1989   71.4064    0.4746 O.3     1  UNL1       -0.2858
     29 O          21.6659   73.7153    0.6983 O.3     1  UNL1       -0.3226
     30 O          21.8579   72.4022    4.6376 O.3     1  UNL1       -0.3794
     31 O          22.9918   70.7960    2.4835 O.3     1  UNL1       -0.3775
     32 O          21.8885   74.8359    3.3314 O.3     1  UNL1       -0.3792
     33 C          21.4188   72.4669    3.2836 C.3     1  UNL1        0.1718
     34 C          22.5760   72.1490    2.3307 C.3     1  UNL1        0.1968
     35 C          20.8812   73.8731    3.0040 C.3     1  UNL1        0.1723
     36 C          22.1596   72.3832    0.8733 C.3     1  UNL1        0.2706
     37 C          20.5377   74.0059    1.5220 C.3     1  UNL1        0.1830
     38 H          21.0956   72.6122    5.2036 H       1  UNL1        0.2105
     39 H          23.7170   70.6392    1.8555 H       1  UNL1        0.2106
     40 H          22.5771   74.8078    2.6458 H       1  UNL1        0.2106
     41 O          20.2894   75.6351   -0.1477 O.co2   1  UNL1       -0.5466
     42 O          19.7086   76.2277    1.9757 O.co2   1  UNL1       -0.5466
     43 C          20.1306   75.4033    1.1777 C.2     1  UNL1        0.0799
@<TRIPOS>UNITY_ATOM_ATTR
41 1
charge -1
@<TRIPOS>BOND
     1     1     4    1
     2     1    24    1
     3     1     2    1
     4     1     3    2
     5    25    28    1
     6    25    24    1
     7    25    26    1
     8    25    27    2
     9     6    11    1
    10     6    12    1
    11    29    36    1
    12    29    37    1
    13     7     9    1
    14     7    13    1
    15     8    10    1
    16     8    14    1
    17     4     5    1
    18    28    36    1
    19    30    33    1
    20    30    38    1
    21    31    34    1
    22    31    39    1
    23    32    35    1
    24    32    40    1
    25    41    43   ar
    26    15    19    2
    27    42    43   ar
    28    16    22    2
    29    17    12    1
    30    17    19   ar
    31    17    20   ar
    32    18    19   ar
    33    18    22   ar
    34    18    23    1
    35     9    10    1
    36     9    11    1
    37    10    12    1
    38    11     5    1
    39    33    34    1
    40    33    35    1
    41    34    36    1
    42    35    37    1
    43    37    43    1
    44    20    21   ar
    45    21    22   ar
@<TRIPOS>MOLECULE
UDP-glaA
 43 45 0 0 0
SMALL
GASTEIGER

@<TRIPOS>ATOM
      1 P          22.3618   73.8155   -4.8934 P.3     1  UNL1        0.2189
      2 O          22.8303   75.2029   -5.5812 O.3     1  UNL1       -0.4371
      3 O          23.4518   72.8005   -4.7095 O.2     1  UNL1       -0.5170
      4 O          21.1034   73.3408   -5.7914 O.3     1  UNL1       -0.3112
      5 C          21.3496   72.8574   -7.1009 C.3     1  UNL1        0.1811
      6 O          19.1903   71.8217   -6.9039 O.3     1  UNL1       -0.3308
      7 O          20.2168   69.7503   -8.8136 O.3     1  UNL1       -0.3794
      8 O          18.7019   71.3463  -10.4240 O.3     1  UNL1       -0.3779
      9 C          20.4788   71.1530   -8.7760 C.3     1  UNL1        0.1713
     10 C          19.2739   71.9258   -9.2696 C.3     1  UNL1        0.1895
     11 C          20.5535   71.5780   -7.3154 C.3     1  UNL1        0.1764
     12 C          18.3475   71.8681   -8.0670 C.3     1  UNL1        0.2383
     13 H          20.9993   69.2996   -8.4528 H       1  UNL1        0.2105
     14 H          19.3901   71.3219  -11.1109 H       1  UNL1        0.2106
     15 O          19.1065   74.4841   -8.8124 O.2     1  UNL1       -0.2464
     16 O          14.9814   76.1998   -7.6817 O.2     1  UNL1       -0.2670
     17 N          17.4919   73.0168   -7.9784 N.ar    1  UNL1       -0.2551
     18 N          17.0520   75.3368   -8.2484 N.ar    1  UNL1       -0.2743
     19 C          17.9704   74.2866   -8.3778 C.ar    1  UNL1        0.3323
     20 C          16.1937   72.8789   -7.4998 C.ar    1  UNL1        0.0869
     21 C          15.3300   73.8900   -7.3829 C.ar    1  UNL1        0.0795
     22 C          15.7511   75.2489   -7.7775 C.ar    1  UNL1        0.2626
     23 H          17.3745   76.2590   -8.5290 H       1  UNL1        0.1734
     24 O          21.6630   74.3094   -3.5212 O.3     1  UNL1       -0.2703
     25 P          20.6382   73.5572   -2.5228 P.3     1  UNL1        0.2208
     26 O          20.8524   71.9942   -2.8798 O.3     1  UNL1       -0.4371
     27 O          19.2162   74.0284   -2.6302 O.2     1  UNL1       -0.5170
     28 O          21.2905   73.7346   -1.0575 O.3     1  UNL1       -0.2858
     29 O          20.8875   71.8999    0.3815 O.3     1  UNL1       -0.3226
     30 O          22.5863   74.6773    2.9660 O.3     1  UNL1       -0.3794
     31 O          20.6520   75.5176    0.9515 O.3     1  UNL1       -0.3775
     32 O          21.8597   72.0148    3.0797 O.3     1  UNL1       -0.3792
     33 C          22.3486   73.9719    1.7510 C.3     1  UNL1        0.1718
     34 C          20.8961   74.1589    1.2999 C.3     1  UNL1        0.1968
     35 C          22.6401   72.4857    1.9760 C.3     1  UNL1        0.1723
     36 C          20.5837   73.2682    0.0910 C.3     1  UNL1        0.2706
     37 C          22.2558   71.6928    0.7287 C.3     1  UNL1        0.1830
     38 H          23.5147   74.5290    3.2145 H       1  UNL1        0.2105
     39 H          19.7258   75.5850    0.6643 H       1  UNL1        0.2106
     40 H          20.9342   71.9365    2.7925 H       1  UNL1        0.2106
     41 O          23.4738   69.9591    1.7359 O.co2   1  UNL1       -0.5466
     42 O          21.6594   69.3653    0.4899 O.co2   1  UNL1       -0.5466
     43 C          22.4021   70.2208    0.9495 C.2     1  UNL1        0.0799
@<TRIPOS>UNITY_ATOM_ATTR
41 1
charge -1
@<TRIPOS>BOND
     1     1     4    1
     2     1    24    1
     3     1     2    1
     4     1     3    2
     5    25    28    1
     6    25    24    1
     7    25    26    1
     8    25    27    2
     9     6    11    1
    10     6    12    1
    11    29    36    1
    12    29    37    1
    13     7     9    1
    14     7    13    1
    15     8    10    1
    16     8    14    1
    17     4     5    1
    18    28    36    1
    19    30    33    1
    20    30    38    1
    21    31    34    1
    22    31    39    1
    23    32    35    1
    24    32    40    1
    25    41    43   ar
    26    15    19    2
    27    42    43   ar
    28    16    22    2
    29    17    12    1
    30    17    19   ar
    31    17    20   ar
    32    18    19   ar
    33    18    22   ar
    34    18    23    1
    35     9    10    1
    36     9    11    1
    37    10    12    1
    38    11     5    1
    39    33    34    1
    40    33    35    1
    41    34    36    1
    42    35    37    1
    43    37    43    1
    44    20    21   ar
    45    21    22   ar
@<TRIPOS>MOLECULE
UDP-glaA
 43 45 0 0 0
SMALL
GASTEIGER

@<TRIPOS>ATOM
      1 P          21.9431   74.6949   -5.6442 P.3     1  UNL1        0.2189
      2 O          21.1454   76.0900   -5.4576 O.3     1  UNL1       -0.4371
      3 O          23.2261   74.7977   -6.4158 O.2     1  UNL1       -0.5170
      4 O          20.8333   73.6903   -6.2563 O.3     1  UNL1       -0.3112
      5 C          19.7342   74.2430   -6.9606 C.3     1  UNL1        0.1811
      6 O          19.5399   71.9473   -7.6435 O.3     1  UNL1       -0.3308
      7 O          17.7620   72.9467   -9.8416 O.3     1  UNL1       -0.3794
      8 O          15.9743   71.9892   -8.0187 O.3     1  UNL1       -0.3779
      9 C          17.8860   73.4126   -8.4980 C.3     1  UNL1        0.1713
     10 C          17.2248   72.4420   -7.5424 C.3     1  UNL1        0.1895
     11 C          19.3515   73.3059   -8.0973 C.3     1  UNL1        0.1764
     12 C          18.2556   71.3292   -7.4590 C.3     1  UNL1        0.2383
     13 H          18.2327   73.5782  -10.4119 H       1  UNL1        0.2105
     14 H          15.4099   72.7708   -8.1482 H       1  UNL1        0.2106
     15 O          16.2561   69.5090   -6.6441 O.2     1  UNL1       -0.2464
     16 O          18.2885   68.8198   -2.5657 O.2     1  UNL1       -0.2670
     17 N          18.2376   70.6592   -6.1901 N.ar    1  UNL1       -0.2551
     18 N          17.2692   69.1674   -4.6135 N.ar    1  UNL1       -0.2743
     19 C          17.1873   69.7645   -5.8784 C.ar    1  UNL1        0.3323
     20 C          19.2533   70.8912   -5.2693 C.ar    1  UNL1        0.0869
     21 C          19.3175   70.3137   -4.0675 C.ar    1  UNL1        0.0795
     22 C          18.2590   69.3670   -3.6637 C.ar    1  UNL1        0.2626
     23 H          16.5243   68.5210   -4.3676 H       1  UNL1        0.1734
     24 O          22.1113   74.1677   -4.1247 O.3     1  UNL1       -0.2703
     25 P          21.5759   74.7757   -2.7261 P.3     1  UNL1        0.2208
     26 O          20.0692   75.2465   -3.0787 O.3     1  UNL1       -0.4371
     27 O          22.4451   75.8576   -2.1518 O.2     1  UNL1       -0.5170
     28 O          21.3886   73.4916   -1.7669 O.3     1  UNL1       -0.2858
     29 O          22.6183   72.7515    0.1144 O.3     1  UNL1       -0.3226
     30 O          21.4868   69.1633   -1.6530 O.3     1  UNL1       -0.3794
     31 O          22.3684   71.4089   -3.2918 O.3     1  UNL1       -0.3775
     32 O          22.6858   69.9444    0.7097 O.3     1  UNL1       -0.3792
     33 C          21.3949   70.5261   -1.2474 C.3     1  UNL1        0.1718
     34 C          22.5238   71.3486   -1.8779 C.3     1  UNL1        0.1968
     35 C          21.4860   70.5957    0.2795 C.3     1  UNL1        0.1723
     36 C          22.5367   72.7750   -1.3145 C.3     1  UNL1        0.2706
     37 C          21.5326   72.0557    0.7248 C.3     1  UNL1        0.1830
     38 H          20.7562   68.6813   -1.2293 H       1  UNL1        0.2105
     39 H          23.0980   71.9457   -3.6445 H       1  UNL1        0.2106
     40 H          23.4418   70.5170    0.4957 H       1  UNL1        0.2106
     41 O          23.0340   72.5185    2.4670 O.co2   1  UNL1       -0.5466
     42 O          20.8970   71.9828    3.0531 O.co2   1  UNL1       -0.5466
     43 C          21.7520   72.1711    2.1998 C.2     1  UNL1        0.0799
@<TRIPOS>UNITY_ATOM_ATTR
41 1
charge -1
@<TRIPOS>BOND
     1     1     4    1
     2     1    24    1
     3     1     2    1
     4     1     3    2
     5    25    28    1
     6    25    24    1
     7    25    26    1
     8    25    27    2
     9     6    11    1
    10     6    12    1
    11    29    36    1
    12    29    37    1
    13     7     9    1
    14     7    13    1
    15     8    10    1
    16     8    14    1
    17     4     5    1
    18    28    36    1
    19    30    33    1
    20    30    38    1
    21    31    34    1
    22    31    39    1
    23    32    35    1
    24    32    40    1
    25    41    43   ar
    26    15    19    2
    27    42    43   ar
    28    16    22    2
    29    17    12    1
    30    17    19   ar
    31    17    20   ar
    32    18    19   ar
    33    18    22   ar
    34    18    23    1
    35     9    10    1
    36     9    11    1
    37    10    12    1
    38    11     5    1
    39    33    34    1
    40    33    35    1
    41    34    36    1
    42    35    37    1
    43    37    43    1
    44    20    21   ar
    45    21    22   ar
@<TRIPOS>MOLECULE
UDP-glaA
 43 45 0 0 0
SMALL
GASTEIGER

@<TRIPOS>ATOM
      1 P          22.4134   73.2406   -4.4226 P.3     1  UNL1        0.2189
      2 O          21.4564   71.9364   -4.4473 O.3     1  UNL1       -0.4371
      3 O          23.8846   72.9470   -4.4618 O.2     1  UNL1       -0.5170
      4 O          21.8977   74.0782   -3.1388 O.3     1  UNL1       -0.3112
      5 C          21.3958   73.3647   -2.0216 C.3     1  UNL1        0.1811
      6 O          22.7392   73.1344   -0.0425 O.3     1  UNL1       -0.3308
      7 O          23.4819   70.4240   -1.0881 O.3     1  UNL1       -0.3794
      8 O          21.5890   69.8410    0.7861 O.3     1  UNL1       -0.3779
      9 C          22.2373   71.1172   -1.1790 C.3     1  UNL1        0.1713
     10 C          21.5310   71.1061    0.1603 C.3     1  UNL1        0.1895
     11 C          22.5374   72.5983   -1.3688 C.3     1  UNL1        0.1764
     12 C          22.2930   72.1729    0.9280 C.3     1  UNL1        0.2383
     13 H          23.9149   70.4909   -1.9562 H       1  UNL1        0.2105
     14 H          21.1778   69.1974    0.1838 H       1  UNL1        0.2106
     15 O          22.2649   71.5479    3.6819 O.2     1  UNL1       -0.2464
     16 O          19.1105   74.7878    4.5717 O.2     1  UNL1       -0.2670
     17 N          21.4747   72.8373    1.9018 N.ar    1  UNL1       -0.2551
     18 N          20.6937   73.1613    4.1230 N.ar    1  UNL1       -0.2743
     19 C          21.5348   72.4466    3.2600 C.ar    1  UNL1        0.3323
     20 C          20.6239   73.8641    1.5078 C.ar    1  UNL1        0.0869
     21 C          19.8285   74.5361    2.3429 C.ar    1  UNL1        0.0795
     22 C          19.8303   74.1895    3.7780 C.ar    1  UNL1        0.2626
     23 H          20.7199   72.8971    5.1042 H       1  UNL1        0.1734
     24 O          21.8675   74.1142   -5.6692 O.3     1  UNL1       -0.2703
     25 P          21.2931   73.6612   -7.1106 P.3     1  UNL1        0.2208
     26 O          22.1934   72.3691   -7.4794 O.3     1  UNL1       -0.4371
     27 O          21.3106   74.7460   -8.1492 O.2     1  UNL1       -0.5170
     28 O          19.8280   73.0621   -6.7970 O.3     1  UNL1       -0.2858
     29 O          19.0635   70.8459   -6.4751 O.3     1  UNL1       -0.3226
     30 O          15.8463   72.6007   -8.4373 O.3     1  UNL1       -0.3794
     31 O          18.5824   73.1897   -9.2577 O.3     1  UNL1       -0.3775
     32 O          16.3552   70.1988   -7.1717 O.3     1  UNL1       -0.3792
     33 C          16.9737   72.4993   -7.5718 C.3     1  UNL1        0.1718
     34 C          18.2294   72.1337   -8.3705 C.3     1  UNL1        0.1968
     35 C          16.6930   71.4259   -6.5167 C.3     1  UNL1        0.1723
     36 C          19.4088   71.8542   -7.4306 C.3     1  UNL1        0.2706
     37 C          17.9424   71.2018   -5.6675 C.3     1  UNL1        0.1830
     38 H          15.0761   72.8306   -7.8900 H       1  UNL1        0.2105
     39 H          19.3854   72.9175   -9.7330 H       1  UNL1        0.2106
     40 H          17.1654   69.8176   -7.5505 H       1  UNL1        0.2106
     41 O          18.9525   69.5503   -4.3424 O.co2   1  UNL1       -0.5466
     42 O          16.6762   69.6662   -4.3007 O.co2   1  UNL1       -0.5466
     43 C          17.7559   70.0703   -4.7075 C.2     1  UNL1        0.0799
@<TRIPOS>UNITY_ATOM_ATTR
41 1
charge -1
@<TRIPOS>BOND
     1     1     4    1
     2     1    24    1
     3     1     2    1
     4     1     3    2
     5    25    28    1
     6    25    24    1
     7    25    26    1
     8    25    27    2
     9     6    11    1
    10     6    12    1
    11    29    36    1
    12    29    37    1
    13     7     9    1
    14     7    13    1
    15     8    10    1
    16     8    14    1
    17     4     5    1
    18    28    36    1
    19    30    33    1
    20    30    38    1
    21    31    34    1
    22    31    39    1
    23    32    35    1
    24    32    40    1
    25    41    43   ar
    26    15    19    2
    27    42    43   ar
    28    16    22    2
    29    17    12    1
    30    17    19   ar
    31    17    20   ar
    32    18    19   ar
    33    18    22   ar
    34    18    23    1
    35     9    10    1
    36     9    11    1
    37    10    12    1
    38    11     5    1
    39    33    34    1
    40    33    35    1
    41    34    36    1
    42    35    37    1
    43    37    43    1
    44    20    21   ar
    45    21    22   ar
@<TRIPOS>MOLECULE
UDP-glaA
 43 45 0 0 0
SMALL
GASTEIGER

@<TRIPOS>ATOM
      1 P          20.0041   70.6048   -3.6348 P.3     1  UNL1        0.2189
      2 O          20.8219   69.3501   -3.0231 O.3     1  UNL1       -0.4371
      3 O          18.9552   71.1793   -2.7282 O.2     1  UNL1       -0.5170
      4 O          19.4777   70.0665   -5.0661 O.3     1  UNL1       -0.3112
      5 C          19.7927   70.8139   -6.2286 C.3     1  UNL1        0.1811
      6 O          18.6452   72.8032   -6.9360 O.3     1  UNL1       -0.3308
      7 O          16.8293   70.9822   -8.4780 O.3     1  UNL1       -0.3794
      8 O          18.5114   71.9200  -10.4085 O.3     1  UNL1       -0.3779
      9 C          18.2312   70.8661   -8.2356 C.3     1  UNL1        0.1713
     10 C          18.9949   71.8622   -9.0824 C.3     1  UNL1        0.1895
     11 C          18.5072   71.3694   -6.8248 C.3     1  UNL1        0.1764
     12 C          18.7722   73.1588   -8.3226 C.3     1  UNL1        0.2383
     13 H          16.3799   70.3543   -7.8869 H       1  UNL1        0.2105
     14 H          18.5887   71.0274  -10.7873 H       1  UNL1        0.2106
     15 O          18.5287   75.9686   -8.1775 O.2     1  UNL1       -0.2464
     16 O          23.0373   76.5801   -8.9109 O.2     1  UNL1       -0.2670
     17 N          19.8657   74.0761   -8.4714 N.ar    1  UNL1       -0.2551
     18 N          20.7739   76.2713   -8.5433 N.ar    1  UNL1       -0.2743
     19 C          19.6365   75.4690   -8.3822 C.ar    1  UNL1        0.3323
     20 C          21.1489   73.5932   -8.7032 C.ar    1  UNL1        0.0869
     21 C          22.2231   74.3711   -8.8541 C.ar    1  UNL1        0.0795
     22 C          22.0698   75.8373   -8.7759 C.ar    1  UNL1        0.2626
     23 H          20.6328   77.2761   -8.4837 H       1  UNL1        0.1734
     24 O          21.1788   71.6377   -4.0451 O.3     1  UNL1       -0.2703
     25 P          22.6612   71.8530   -3.4377 P.3     1  UNL1        0.2208
     26 O          23.4165   72.6967   -4.5926 O.3     1  UNL1       -0.4371
     27 O          23.3563   70.5811   -3.0441 O.2     1  UNL1       -0.5170
     28 O          22.4595   72.9038   -2.2298 O.3     1  UNL1       -0.2858
     29 O          21.4969   71.5568   -0.5392 O.3     1  UNL1       -0.3226
     30 O          22.2041   75.1192    1.4828 O.3     1  UNL1       -0.3794
     31 O          21.1785   75.1435   -1.2473 O.3     1  UNL1       -0.3775
     32 O          21.4056   72.5600    2.1485 O.3     1  UNL1       -0.3792
     33 C          22.4109   74.0640    0.5478 C.3     1  UNL1        0.1718
     34 C          21.2346   73.9787   -0.4306 C.3     1  UNL1        0.1968
     35 C          22.5528   72.7452    1.3128 C.3     1  UNL1        0.1723
     36 C          21.3642   72.7428   -1.3295 C.3     1  UNL1        0.2706
     37 C          22.6328   71.5844    0.3237 C.3     1  UNL1        0.1830
     38 H          22.9698   75.1344    2.0821 H       1  UNL1        0.2105
     39 H          20.4267   75.0401   -1.8547 H       1  UNL1        0.2106
     40 H          20.6499   72.3182    1.5867 H       1  UNL1        0.2106
     41 O          21.7084   69.4356    0.5024 O.co2   1  UNL1       -0.5466
     42 O          23.3876   69.9670    1.9498 O.co2   1  UNL1       -0.5466
     43 C          22.6418   70.2650    1.0281 C.2     1  UNL1        0.0799
@<TRIPOS>UNITY_ATOM_ATTR
41 1
charge -1
@<TRIPOS>BOND
     1     1     4    1
     2     1    24    1
     3     1     2    1
     4     1     3    2
     5    25    28    1
     6    25    24    1
     7    25    26    1
     8    25    27    2
     9     6    11    1
    10     6    12    1
    11    29    36    1
    12    29    37    1
    13     7     9    1
    14     7    13    1
    15     8    10    1
    16     8    14    1
    17     4     5    1
    18    28    36    1
    19    30    33    1
    20    30    38    1
    21    31    34    1
    22    31    39    1
    23    32    35    1
    24    32    40    1
    25    41    43   ar
    26    15    19    2
    27    42    43   ar
    28    16    22    2
    29    17    12    1
    30    17    19   ar
    31    17    20   ar
    32    18    19   ar
    33    18    22   ar
    34    18    23    1
    35     9    10    1
    36     9    11    1
    37    10    12    1
    38    11     5    1
    39    33    34    1
    40    33    35    1
    41    34    36    1
    42    35    37    1
    43    37    43    1
    44    20    21   ar
    45    21    22   ar
@<TRIPOS>MOLECULE
UDP-glaA
 43 45 0 0 0
SMALL
GASTEIGER

@<TRIPOS>ATOM
      1 P          17.5840   70.7236   -5.8060 P.3     1  UNL1        0.2189
      2 O          16.3333   70.2692   -6.7261 O.3     1  UNL1       -0.4371
      3 O          17.3681   71.9854   -5.0228 O.2     1  UNL1       -0.5170
      4 O          18.8361   70.7372   -6.8295 O.3     1  UNL1       -0.3112
      5 C          18.6181   70.3379   -8.1720 C.3     1  UNL1        0.1811
      6 O          18.4614   72.0061   -9.8944 O.3     1  UNL1       -0.3308
      7 O          21.2961   72.7073   -9.2133 O.3     1  UNL1       -0.3794
      8 O          19.8784   74.6620   -7.9465 O.3     1  UNL1       -0.3779
      9 C          20.2365   72.2917   -8.3518 C.3     1  UNL1        0.1713
     10 C          19.2433   73.4183   -8.1598 C.3     1  UNL1        0.1895
     11 C          19.4041   71.2564   -9.0967 C.3     1  UNL1        0.1764
     12 C          18.4631   73.3768   -9.4627 C.3     1  UNL1        0.2383
     13 H          21.8847   71.9434   -9.3381 H       1  UNL1        0.2105
     14 H          20.4412   74.5718   -7.1582 H       1  UNL1        0.2106
     15 O          16.8761   74.4374  -11.5440 O.2     1  UNL1       -0.2464
     16 O          13.2720   75.0403   -8.7359 O.2     1  UNL1       -0.2670
     17 N          17.1069   73.8182   -9.3038 N.ar    1  UNL1       -0.2551
     18 N          15.0826   74.7374  -10.1442 N.ar    1  UNL1       -0.2743
     19 C          16.3979   74.3360  -10.4128 C.ar    1  UNL1        0.3323
     20 C          16.4925   73.7360   -8.0591 C.ar    1  UNL1        0.0869
     21 C          15.2375   74.1224   -7.8192 C.ar    1  UNL1        0.0795
     22 C          14.4286   74.6755   -8.9235 C.ar    1  UNL1        0.2626
     23 H          14.5540   75.1135  -10.9267 H       1  UNL1        0.1734
     24 O          17.8662   69.4112   -4.9044 O.3     1  UNL1       -0.2703
     25 P          18.6851   69.2301   -3.5226 P.3     1  UNL1        0.2208
     26 O          19.1971   67.6975   -3.5928 O.3     1  UNL1       -0.4371
     27 O          17.8946   69.5638   -2.2899 O.2     1  UNL1       -0.5170
     28 O          20.0195   70.1159   -3.7190 O.3     1  UNL1       -0.2858
     29 O          20.5536   71.0494   -1.6112 O.3     1  UNL1       -0.3226
     30 O          23.6089   72.5213   -4.0149 O.3     1  UNL1       -0.3794
     31 O          20.8685   72.4060   -5.0065 O.3     1  UNL1       -0.3775
     32 O          23.0210   72.4859   -1.3162 O.3     1  UNL1       -0.3792
     33 C          22.6278   71.6078   -3.5319 C.3     1  UNL1        0.1718
     34 C          21.2274   72.2203   -3.6413 C.3     1  UNL1        0.1968
     35 C          22.9402   71.2723   -2.0710 C.3     1  UNL1        0.1723
     36 C          20.1857   71.3179   -2.9682 C.3     1  UNL1        0.2706
     37 C          21.8223   70.4075   -1.4927 C.3     1  UNL1        0.1830
     38 H          24.4775   72.0938   -3.9245 H       1  UNL1        0.2105
     39 H          19.9739   72.7857   -5.0256 H       1  UNL1        0.2106
     40 H          22.1215   72.8336   -1.1933 H       1  UNL1        0.2106
     41 O          21.3293   71.0676    0.7039 O.co2   1  UNL1       -0.5466
     42 O          22.7070   69.2699    0.4446 O.co2   1  UNL1       -0.5466
     43 C          22.0204   70.1628   -0.0305 C.2     1  UNL1        0.0799
@<TRIPOS>UNITY_ATOM_ATTR
41 1
charge -1
@<TRIPOS>BOND
     1     1     4    1
     2     1    24    1
     3     1     2    1
     4     1     3    2
     5    25    28    1
     6    25    24    1
     7    25    26    1
     8    25    27    2
     9     6    11    1
    10     6    12    1
    11    29    36    1
    12    29    37    1
    13     7     9    1
    14     7    13    1
    15     8    10    1
    16     8    14    1
    17     4     5    1
    18    28    36    1
    19    30    33    1
    20    30    38    1
    21    31    34    1
    22    31    39    1
    23    32    35    1
    24    32    40    1
    25    41    43   ar
    26    15    19    2
    27    42    43   ar
    28    16    22    2
    29    17    12    1
    30    17    19   ar
    31    17    20   ar
    32    18    19   ar
    33    18    22   ar
    34    18    23    1
    35     9    10    1
    36     9    11    1
    37    10    12    1
    38    11     5    1
    39    33    34    1
    40    33    35    1
    41    34    36    1
    42    35    37    1
    43    37    43    1
    44    20    21   ar
    45    21    22   ar
