@<TRIPOS>MOLECULE
GDU
 43 45 0 0 0
SMALL
GASTEIGER

@<TRIPOS>ATOM
      1 P          22.1766   70.8062   -2.5094 P.3     1  UNL1        0.2189
      2 O          21.5441   69.5971   -1.9371 O.2     1  UNL1       -0.5170
      3 O          23.5364   70.3930   -3.2666 O.3     1  UNL1       -0.4371
      4 O          21.1682   71.4958   -3.5555 O.3     1  UNL1       -0.3112
      5 C          20.2095   72.2245   -2.7871 C.3     1  UNL1        0.1811
      6 C          17.9352   71.3305   -5.4245 C.3     1  UNL1        0.2383
      7 C          18.0186   70.0628   -4.5363 C.3     1  UNL1        0.1895
      8 O          16.7885   69.3354   -4.5690 O.3     1  UNL1       -0.3779
      9 C          18.2663   70.6674   -3.1297 C.3     1  UNL1        0.1713
     10 C          18.8249   72.0730   -3.4196 C.3     1  UNL1        0.1764
     11 O          18.9224   72.2116   -4.8477 O.3     1  UNL1       -0.3308
     12 O          17.0414   70.7495   -2.3984 O.3     1  UNL1       -0.3794
     13 H          16.9064   68.5625   -3.9993 H       1  UNL1        0.2106
     14 H          16.7125   69.8457   -2.3007 H       1  UNL1        0.2105
     15 N          18.2750   71.0135   -6.8126 N.ar    1  UNL1       -0.2551
     16 C          17.2995   70.6970   -7.6824 C.ar    1  UNL1        0.3323
     17 N          17.5847   70.4049   -8.9651 N.ar    1  UNL1       -0.2743
     18 C          18.8603   70.4157   -9.3975 C.ar    1  UNL1        0.2626
     19 C          19.8987   70.7417   -8.4911 C.ar    1  UNL1        0.0795
     20 C          19.5845   71.0347   -7.2113 C.ar    1  UNL1        0.0869
     21 O          16.1441   70.6836   -7.3070 O.2     1  UNL1       -0.2464
     22 O          19.1198   70.1468  -10.5572 O.2     1  UNL1       -0.2670
     23 H          16.8677   70.1828   -9.5801 H       1  UNL1        0.1734
     24 O          22.5168   71.8438   -1.3262 O.3     1  UNL1       -0.2703
     25 P          22.3954   71.0304    0.0571 P.3     1  UNL1        0.2208
     26 O          21.0743   70.3677    0.1250 O.2     1  UNL1       -0.5170
     27 O          23.5576   69.9176    0.1289 O.3     1  UNL1       -0.4371
     28 O          22.5508   72.0476    1.2945 O.3     1  UNL1       -0.2858
     29 C          21.2625   72.6184    1.5268 C.3     1  UNL1        0.2704
     30 C          21.2687   74.0841    1.0901 C.3     1  UNL1        0.1967
     31 C          22.3438   74.8356    1.8812 C.3     1  UNL1        0.1715
     32 C          22.1047   74.6017    3.3771 C.3     1  UNL1        0.1694
     33 C          22.0370   73.0954    3.6408 C.3     1  UNL1        0.1761
     34 O          21.5555   74.1660   -0.3072 O.3     1  UNL1       -0.3775
     35 O          22.2637   76.2330    1.5924 O.3     1  UNL1       -0.3794
     36 O          20.8751   75.2155    3.7661 O.3     1  UNL1       -0.3794
     37 O          20.9478   72.5280    2.9144 O.3     1  UNL1       -0.3258
     38 H          20.8593   73.6747   -0.7641 H       1  UNL1        0.2106
     39 H          22.4077   76.3312    0.6427 H       1  UNL1        0.2105
     40 H          20.9612   76.1590    3.5772 H       1  UNL1        0.2105
     41 C          21.8327   72.8501    5.1375 C.3     1  UNL1        0.1693
     42 O          22.9738   73.3210    5.8567 O.3     1  UNL1       -0.3794
     43 H          22.8050   73.1489    6.7932 H       1  UNL1        0.2105
@<TRIPOS>BOND
     1    15    16   ar
     2    15    20   ar
     3    15     6    1
     4    16    17   ar
     5    16    21    2
     6    17    18   ar
     7    17    23    1
     8    18    19   ar
     9    18    22    2
    10    19    20   ar
    11     6     7    1
    12     6    11    1
    13     7     8    1
    14     7     9    1
    15     8    13    1
    16     9    10    1
    17     9    12    1
    18    10    11    1
    19    10     5    1
    20    12    14    1
    21     5     4    1
    22     4     1    1
    23     1     2    2
    24     1     3    1
    25     1    24    1
    26    24    25    1
    27    25    26    2
    28    25    27    1
    29    25    28    1
    30    28    29    1
    31    29    30    1
    32    29    37    1
    33    30    31    1
    34    30    34    1
    35    31    32    1
    36    31    35    1
    37    32    33    1
    38    32    36    1
    39    33    41    1
    40    33    37    1
    41    41    42    1
    42    34    38    1
    43    35    39    1
    44    36    40    1
    45    42    43    1
@<TRIPOS>MOLECULE
GDU
 43 45 0 0 0
SMALL
GASTEIGER

@<TRIPOS>ATOM
      1 P          22.1435   70.8772   -2.6829 P.3     1  UNL1        0.2189
      2 O          21.5232   69.5505   -2.4716 O.2     1  UNL1       -0.5170
      3 O          23.5938   70.6902   -3.3572 O.3     1  UNL1       -0.4371
      4 O          21.2104   71.7580   -3.6526 O.3     1  UNL1       -0.3112
      5 C          20.2292   72.3851   -2.8252 C.3     1  UNL1        0.1811
      6 C          17.9540   71.4050   -5.4309 C.3     1  UNL1        0.2383
      7 C          18.0502   70.1615   -4.5104 C.3     1  UNL1        0.1895
      8 O          16.8259   69.4238   -4.5202 O.3     1  UNL1       -0.3779
      9 C          18.2975   70.8044   -3.1208 C.3     1  UNL1        0.1713
     10 C          18.8439   72.2063   -3.4489 C.3     1  UNL1        0.1764
     11 O          18.9359   72.3085   -4.8804 O.3     1  UNL1       -0.3308
     12 O          17.0743   70.8958   -2.3878 O.3     1  UNL1       -0.3794
     13 H          16.9517   68.6669   -3.9311 H       1  UNL1        0.2106
     14 H          16.7528   69.9922   -2.2656 H       1  UNL1        0.2105
     15 N          18.2920   71.0548   -6.8115 N.ar    1  UNL1       -0.2551
     16 C          17.3137   70.7358   -7.6772 C.ar    1  UNL1        0.3323
     17 N          17.5972   70.4135   -8.9530 N.ar    1  UNL1       -0.2743
     18 C          18.8738   70.3958   -9.3822 C.ar    1  UNL1        0.2626
     19 C          19.9151   70.7240   -8.4800 C.ar    1  UNL1        0.0795
     20 C          19.6026   71.0477   -7.2071 C.ar    1  UNL1        0.0869
     21 O          16.1574   70.7479   -7.3046 O.2     1  UNL1       -0.2464
     22 O          19.1318   70.0996  -10.5356 O.2     1  UNL1       -0.2670
     23 H          16.8782   70.1901   -9.5653 H       1  UNL1        0.1734
     24 O          22.3044   71.6251   -1.2661 O.3     1  UNL1       -0.2703
     25 P          21.7324   70.6247   -0.1427 P.3     1  UNL1        0.2208
     26 O          20.5825   69.8727   -0.6916 O.2     1  UNL1       -0.5170
     27 O          22.8886   69.5922    0.2949 O.3     1  UNL1       -0.4371
     28 O          21.2576   71.4721    1.1404 O.3     1  UNL1       -0.2858
     29 C          22.2966   72.4093    1.4265 C.3     1  UNL1        0.2704
     30 C          22.7590   72.2310    2.8735 C.3     1  UNL1        0.1967
     31 C          21.5647   72.4454    3.8085 C.3     1  UNL1        0.1715
     32 C          20.9301   73.8036    3.4892 C.3     1  UNL1        0.1694
     33 C          20.6044   73.8618    1.9947 C.3     1  UNL1        0.1761
     34 O          23.2771   70.9114    3.0512 O.3     1  UNL1       -0.3775
     35 O          22.0091   72.4278    5.1667 O.3     1  UNL1       -0.3794
     36 O          21.8437   74.8488    3.8251 O.3     1  UNL1       -0.3794
     37 O          21.8054   73.7339    1.2350 O.3     1  UNL1       -0.3258
     38 H          24.0202   70.8188    2.4397 H       1  UNL1        0.2106
     39 H          22.4105   71.5628    5.3186 H       1  UNL1        0.2105
     40 H          22.0240   74.7697    4.7709 H       1  UNL1        0.2105
     41 C          19.9386   75.2013    1.6713 C.3     1  UNL1        0.1693
     42 O          18.5253   75.0180    1.5716 O.3     1  UNL1       -0.3794
     43 H          18.1444   75.8833    1.3682 H       1  UNL1        0.2105
@<TRIPOS>BOND
     1    15    16   ar
     2    15    20   ar
     3    15     6    1
     4    16    17   ar
     5    16    21    2
     6    17    18   ar
     7    17    23    1
     8    18    19   ar
     9    18    22    2
    10    19    20   ar
    11     6     7    1
    12     6    11    1
    13     7     8    1
    14     7     9    1
    15     8    13    1
    16     9    10    1
    17     9    12    1
    18    10    11    1
    19    10     5    1
    20    12    14    1
    21     5     4    1
    22     4     1    1
    23     1     2    2
    24     1     3    1
    25     1    24    1
    26    24    25    1
    27    25    26    2
    28    25    27    1
    29    25    28    1
    30    28    29    1
    31    29    30    1
    32    29    37    1
    33    30    31    1
    34    30    34    1
    35    31    32    1
    36    31    35    1
    37    32    33    1
    38    32    36    1
    39    33    41    1
    40    33    37    1
    41    41    42    1
    42    34    38    1
    43    35    39    1
    44    36    40    1
    45    42    43    1
@<TRIPOS>MOLECULE
GDU
 43 45 0 0 0
SMALL
GASTEIGER

@<TRIPOS>ATOM
      1 P          22.6051   72.8338   -3.5176 P.3     1  UNL1        0.2189
      2 O          23.0194   71.6402   -2.7474 O.2     1  UNL1       -0.5170
      3 O          22.8043   72.5531   -5.0907 O.3     1  UNL1       -0.4371
      4 O          21.0569   73.1534   -3.2214 O.3     1  UNL1       -0.3112
      5 C          20.4323   71.9102   -2.8978 C.3     1  UNL1        0.1811
      6 C          18.1368   71.2367   -5.5818 C.3     1  UNL1        0.2383
      7 C          18.1552   69.9297   -4.7485 C.3     1  UNL1        0.1895
      8 O          16.8930   69.2626   -4.8183 O.3     1  UNL1       -0.3779
      9 C          18.4213   70.4615   -3.3161 C.3     1  UNL1        0.1713
     10 C          19.0464   71.8506   -3.5427 C.3     1  UNL1        0.1764
     11 O          19.1599   72.0453   -4.9630 O.3     1  UNL1       -0.3308
     12 O          17.1967   70.5694   -2.5877 O.3     1  UNL1       -0.3794
     13 H          16.9710   68.4614   -4.2818 H       1  UNL1        0.2106
     14 H          16.8254   69.6786   -2.5305 H       1  UNL1        0.2105
     15 N          18.4708   70.9638   -6.9807 N.ar    1  UNL1       -0.2551
     16 C          17.4922   70.6702   -7.8550 C.ar    1  UNL1        0.3323
     17 N          17.7720   70.4187   -9.1474 N.ar    1  UNL1       -0.2743
     18 C          19.0454   70.4477   -9.5855 C.ar    1  UNL1        0.2626
     19 C          20.0871   70.7499   -8.6746 C.ar    1  UNL1        0.0795
     20 C          19.7782   71.0022   -7.3849 C.ar    1  UNL1        0.0869
     21 O          16.3387   70.6408   -7.4745 O.2     1  UNL1       -0.2464
     22 O          19.3001   70.2156  -10.7541 O.2     1  UNL1       -0.2670
     23 H          17.0528   70.2128   -9.7655 H       1  UNL1        0.1734
     24 O          23.5077   74.0934   -3.0802 O.3     1  UNL1       -0.2703
     25 P          22.8087   74.7402   -1.7829 P.3     1  UNL1        0.2208
     26 O          23.4557   76.0328   -1.4672 O.2     1  UNL1       -0.5170
     27 O          21.2445   74.9823   -2.0810 O.3     1  UNL1       -0.4371
     28 O          22.9668   73.7402   -0.5320 O.3     1  UNL1       -0.2858
     29 C          21.6873   73.6568    0.0970 C.3     1  UNL1        0.2704
     30 C          21.7693   74.2602    1.5000 C.3     1  UNL1        0.1967
     31 C          22.8211   73.4965    2.3105 C.3     1  UNL1        0.1715
     32 C          22.4866   72.0014    2.2620 C.3     1  UNL1        0.1694
     33 C          22.3520   71.5686    0.7999 C.3     1  UNL1        0.1761
     34 O          22.1405   75.6368    1.4081 O.3     1  UNL1       -0.3775
     35 O          22.8060   73.9506    3.6655 O.3     1  UNL1       -0.3794
     36 O          21.2579   71.7641    2.9505 O.3     1  UNL1       -0.3794
     37 O          21.2887   72.2905    0.1802 O.3     1  UNL1       -0.3258
     38 H          21.4559   76.0759    0.8851 H       1  UNL1        0.2106
     39 H          23.0089   74.8944    3.6466 H       1  UNL1        0.2105
     40 H          21.3872   72.0559    3.8624 H       1  UNL1        0.2105
     41 C          22.0517   70.0692    0.7392 C.3     1  UNL1        0.1693
     42 O          21.7876   69.6916   -0.6131 O.3     1  UNL1       -0.3794
     43 H          21.6043   68.7420   -0.6078 H       1  UNL1        0.2105
@<TRIPOS>BOND
     1    15    16   ar
     2    15    20   ar
     3    15     6    1
     4    16    17   ar
     5    16    21    2
     6    17    18   ar
     7    17    23    1
     8    18    19   ar
     9    18    22    2
    10    19    20   ar
    11     6     7    1
    12     6    11    1
    13     7     8    1
    14     7     9    1
    15     8    13    1
    16     9    10    1
    17     9    12    1
    18    10    11    1
    19    10     5    1
    20    12    14    1
    21     5     4    1
    22     4     1    1
    23     1     2    2
    24     1     3    1
    25     1    24    1
    26    24    25    1
    27    25    26    2
    28    25    27    1
    29    25    28    1
    30    28    29    1
    31    29    30    1
    32    29    37    1
    33    30    31    1
    34    30    34    1
    35    31    32    1
    36    31    35    1
    37    32    33    1
    38    32    36    1
    39    33    41    1
    40    33    37    1
    41    41    42    1
    42    34    38    1
    43    35    39    1
    44    36    40    1
    45    42    43    1
@<TRIPOS>MOLECULE
GDU
 43 45 0 0 0
SMALL
GASTEIGER

@<TRIPOS>ATOM
      1 P          22.1047   73.9426   -6.7817 P.3     1  UNL1        0.2189
      2 O          22.8645   72.7037   -7.0597 O.2     1  UNL1       -0.5170
      3 O          23.1236   75.1852   -6.6781 O.3     1  UNL1       -0.4371
      4 O          21.0549   74.2072   -7.9712 O.3     1  UNL1       -0.3112
      5 C          21.3155   73.2282   -8.9783 C.3     1  UNL1        0.1811
      6 C          18.6481   71.1684   -7.7255 C.3     1  UNL1        0.2383
      7 C          18.0064   72.5676   -7.9081 C.3     1  UNL1        0.1895
      8 O          16.6182   72.4538   -8.2296 O.3     1  UNL1       -0.3779
      9 C          18.8069   73.1382   -9.1076 C.3     1  UNL1        0.1713
     10 C          20.1030   72.3066   -9.1220 C.3     1  UNL1        0.1764
     11 O          20.0448   71.3989   -8.0081 O.3     1  UNL1       -0.3308
     12 O          18.0780   72.9619  -10.3239 O.3     1  UNL1       -0.3794
     13 H          16.2803   73.3548   -8.3293 H       1  UNL1        0.2106
     14 H          17.2529   73.4570  -10.2302 H       1  UNL1        0.2105
     15 N          18.4714   70.6927   -6.3524 N.ar    1  UNL1       -0.2551
     16 C          17.3200   70.0963   -5.9964 C.ar    1  UNL1        0.3323
     17 N          17.1334   69.6467   -4.7414 N.ar    1  UNL1       -0.2743
     18 C          18.0991   69.7971   -3.8146 C.ar    1  UNL1        0.2626
     19 C          19.3150   70.4286   -4.1738 C.ar    1  UNL1        0.0795
     20 C          19.4776   70.8663   -5.4405 C.ar    1  UNL1        0.0869
     21 O          16.4399   69.9531   -6.8216 O.2     1  UNL1       -0.2464
     22 O          17.9292   69.3948   -2.6771 O.2     1  UNL1       -0.2670
     23 H          16.2977   69.2148   -4.5030 H       1  UNL1        0.1734
     24 O          21.3114   73.7834   -5.3896 O.3     1  UNL1       -0.2703
     25 P          22.4217   73.6614   -4.2311 P.3     1  UNL1        0.2208
     26 O          23.4966   72.7456   -4.6728 O.2     1  UNL1       -0.5170
     27 O          23.0460   75.1155   -3.9311 O.3     1  UNL1       -0.4371
     28 O          21.7405   73.0846   -2.8920 O.3     1  UNL1       -0.2858
     29 C          22.8027   72.6829   -2.0259 C.3     1  UNL1        0.2704
     30 C          22.5932   71.2277   -1.6043 C.3     1  UNL1        0.1967
     31 C          21.2411   71.1038   -0.8952 C.3     1  UNL1        0.1715
     32 C          21.1901   72.1271    0.2449 C.3     1  UNL1        0.1694
     33 C          21.5043   73.5155   -0.3179 C.3     1  UNL1        0.1761
     34 O          22.6081   70.3876   -2.7598 O.3     1  UNL1       -0.3775
     35 O          21.0955   69.7842   -0.3660 O.3     1  UNL1       -0.3794
     36 O          22.1532   71.7809    1.2412 O.3     1  UNL1       -0.3794
     37 O          22.8182   73.5232   -0.8743 O.3     1  UNL1       -0.3258
     38 H          23.4725   70.5028   -3.1773 H       1  UNL1        0.2106
     39 H          21.1456   69.1757   -1.1140 H       1  UNL1        0.2105
     40 H          21.9198   70.9000    1.5619 H       1  UNL1        0.2105
     41 C          21.4223   74.5503    0.8065 C.3     1  UNL1        0.1693
     42 O          20.5809   74.0541    1.8490 O.3     1  UNL1       -0.3794
     43 H          20.5564   74.7339    2.5364 H       1  UNL1        0.2105
@<TRIPOS>BOND
     1    15    16   ar
     2    15    20   ar
     3    15     6    1
     4    16    17   ar
     5    16    21    2
     6    17    18   ar
     7    17    23    1
     8    18    19   ar
     9    18    22    2
    10    19    20   ar
    11     6     7    1
    12     6    11    1
    13     7     8    1
    14     7     9    1
    15     8    13    1
    16     9    10    1
    17     9    12    1
    18    10    11    1
    19    10     5    1
    20    12    14    1
    21     5     4    1
    22     4     1    1
    23     1     2    2
    24     1     3    1
    25     1    24    1
    26    24    25    1
    27    25    26    2
    28    25    27    1
    29    25    28    1
    30    28    29    1
    31    29    30    1
    32    29    37    1
    33    30    31    1
    34    30    34    1
    35    31    32    1
    36    31    35    1
    37    32    33    1
    38    32    36    1
    39    33    41    1
    40    33    37    1
    41    41    42    1
    42    34    38    1
    43    35    39    1
    44    36    40    1
    45    42    43    1
@<TRIPOS>MOLECULE
GDU
 43 45 0 0 0
SMALL
GASTEIGER

@<TRIPOS>ATOM
      1 P          22.4307   73.6267   -4.5805 P.3     1  UNL1        0.2189
      2 O          22.7118   72.5437   -5.5488 O.2     1  UNL1       -0.5170
      3 O          23.7689   73.9659   -3.7515 O.3     1  UNL1       -0.4371
      4 O          21.9414   74.9396   -5.3702 O.3     1  UNL1       -0.3112
      5 C          22.3879   74.8009   -6.7200 C.3     1  UNL1        0.1811
      6 C          19.1260   73.9678   -7.9823 C.3     1  UNL1        0.2383
      7 C          18.8705   75.1136   -6.9699 C.3     1  UNL1        0.1895
      8 O          17.7380   75.8943   -7.3586 O.3     1  UNL1       -0.3779
      9 C          20.1772   75.9416   -7.0799 C.3     1  UNL1        0.1713
     10 C          21.1987   74.9521   -7.6704 C.3     1  UNL1        0.1764
     11 O          20.5330   73.6867   -7.8249 O.3     1  UNL1       -0.3308
     12 O          19.9895   77.0576   -7.9524 O.3     1  UNL1       -0.3794
     13 H          17.6337   76.5862   -6.6906 H       1  UNL1        0.2106
     14 H          19.2987   77.6077   -7.5589 H       1  UNL1        0.2105
     15 N          18.3240   72.7905   -7.6453 N.ar    1  UNL1       -0.2551
     16 C          17.0930   72.6501   -8.1682 C.ar    1  UNL1        0.3323
     17 N          16.3365   71.5755   -7.8773 N.ar    1  UNL1       -0.2743
     18 C          16.7996   70.6231   -7.0450 C.ar    1  UNL1        0.2626
     19 C          18.0922   70.7604   -6.4822 C.ar    1  UNL1        0.0795
     20 C          18.8315   71.8460   -6.7941 C.ar    1  UNL1        0.0869
     21 O          16.6619   73.5008   -8.9209 O.2     1  UNL1       -0.2464
     22 O          16.1137   69.6523   -6.7773 O.2     1  UNL1       -0.2670
     23 H          15.4521   71.4884   -8.2671 H       1  UNL1        0.1734
     24 O          21.2774   73.1497   -3.5632 O.3     1  UNL1       -0.2703
     25 P          21.6822   71.6770   -3.0562 P.3     1  UNL1        0.2208
     26 O          20.9340   70.6648   -3.8338 O.2     1  UNL1       -0.5170
     27 O          23.2633   71.4532   -3.2662 O.3     1  UNL1       -0.4371
     28 O          21.3232   71.5284   -1.4944 O.3     1  UNL1       -0.2858
     29 C          22.5615   71.5208   -0.7829 C.3     1  UNL1        0.2704
     30 C          22.3234   71.0367    0.6483 C.3     1  UNL1        0.1967
     31 C          21.3147   71.9677    1.3282 C.3     1  UNL1        0.1715
     32 C          21.8174   73.4103    1.2027 C.3     1  UNL1        0.1694
     33 C          22.0921   73.7151   -0.2720 C.3     1  UNL1        0.1761
     34 O          21.8067   69.7050    0.6234 O.3     1  UNL1       -0.3775
     35 O          21.1928   71.6176    2.7084 O.3     1  UNL1       -0.3794
     36 O          23.0187   73.5653    1.9595 O.3     1  UNL1       -0.3794
     37 O          23.1049   72.8387   -0.7641 O.3     1  UNL1       -0.3258
     38 H          22.4694   69.1568    0.1815 H       1  UNL1        0.2106
     39 H          20.8868   70.7023    2.7390 H       1  UNL1        0.2105
     40 H          22.7999   73.3583    2.8774 H       1  UNL1        0.2105
     41 C          22.5621   75.1648   -0.4124 C.3     1  UNL1        0.1693
     42 O          22.1793   75.6667   -1.6940 O.3     1  UNL1       -0.3794
     43 H          22.4927   76.5804   -1.7418 H       1  UNL1        0.2105
@<TRIPOS>BOND
     1    15    16   ar
     2    15    20   ar
     3    15     6    1
     4    16    17   ar
     5    16    21    2
     6    17    18   ar
     7    17    23    1
     8    18    19   ar
     9    18    22    2
    10    19    20   ar
    11     6     7    1
    12     6    11    1
    13     7     8    1
    14     7     9    1
    15     8    13    1
    16     9    10    1
    17     9    12    1
    18    10    11    1
    19    10     5    1
    20    12    14    1
    21     5     4    1
    22     4     1    1
    23     1     2    2
    24     1     3    1
    25     1    24    1
    26    24    25    1
    27    25    26    2
    28    25    27    1
    29    25    28    1
    30    28    29    1
    31    29    30    1
    32    29    37    1
    33    30    31    1
    34    30    34    1
    35    31    32    1
    36    31    35    1
    37    32    33    1
    38    32    36    1
    39    33    41    1
    40    33    37    1
    41    41    42    1
    42    34    38    1
    43    35    39    1
    44    36    40    1
    45    42    43    1
@<TRIPOS>MOLECULE
GDU
 43 45 0 0 0
SMALL
GASTEIGER

@<TRIPOS>ATOM
      1 P          20.6897   70.5634   -2.5665 P.3     1  UNL1        0.2189
      2 O          20.0457   71.8283   -2.1484 O.2     1  UNL1       -0.5170
      3 O          19.8630   69.3174   -1.9689 O.3     1  UNL1       -0.4371
      4 O          20.7074   70.4749   -4.1724 O.3     1  UNL1       -0.3112
      5 C          19.4123   70.0277   -4.5764 C.3     1  UNL1        0.1811
      6 C          19.0428   72.7740   -6.8674 C.3     1  UNL1        0.2383
      7 C          18.4780   71.5500   -7.6329 C.3     1  UNL1        0.1895
      8 O          17.4412   71.9459   -8.5337 O.3     1  UNL1       -0.3779
      9 C          17.9084   70.6812   -6.4814 C.3     1  UNL1        0.1713
     10 C          18.6527   71.1834   -5.2302 C.3     1  UNL1        0.1764
     11 O          19.5791   72.1968   -5.6580 O.3     1  UNL1       -0.3308
     12 O          16.5004   70.8866   -6.3501 O.3     1  UNL1       -0.3794
     13 H          17.1345   71.1423   -8.9763 H       1  UNL1        0.2106
     14 H          16.0979   70.6093   -7.1843 H       1  UNL1        0.2105
     15 N          20.1008   73.4257   -7.6412 N.ar    1  UNL1       -0.2551
     16 C          21.0184   72.6773   -8.2784 C.ar    1  UNL1        0.3323
     17 N          21.9993   73.2515   -8.9995 N.ar    1  UNL1       -0.2743
     18 C          22.0834   74.5930   -9.0863 C.ar    1  UNL1        0.2626
     19 C          21.1271   75.3942   -8.4155 C.ar    1  UNL1        0.0795
     20 C          20.1512   74.7924   -7.7028 C.ar    1  UNL1        0.0869
     21 O          20.9552   71.4659   -8.2098 O.2     1  UNL1       -0.2464
     22 O          22.9737   75.1138   -9.7347 O.2     1  UNL1       -0.2670
     23 H          22.6506   72.6959   -9.4565 H       1  UNL1        0.1734
     24 O          22.1995   70.5210   -2.0087 O.3     1  UNL1       -0.2703
     25 P          22.1022   70.4428   -0.4042 P.3     1  UNL1        0.2208
     26 O          20.6804   70.3849    0.0012 O.2     1  UNL1       -0.5170
     27 O          22.8621   69.1213    0.1155 O.3     1  UNL1       -0.4371
     28 O          22.7924   71.7459    0.2404 O.3     1  UNL1       -0.2858
     29 C          21.7632   72.7224    0.4047 C.3     1  UNL1        0.2704
     30 C          22.1853   74.0262   -0.2744 C.3     1  UNL1        0.1967
     31 C          23.4967   74.5121    0.3506 C.3     1  UNL1        0.1715
     32 C          23.3131   74.5978    1.8700 C.3     1  UNL1        0.1694
     33 C          22.8070   73.2489    2.3871 C.3     1  UNL1        0.1761
     34 O          22.3751   73.7982   -1.6720 O.3     1  UNL1       -0.3775
     35 O          23.8272   75.8018   -0.1690 O.3     1  UNL1       -0.3794
     36 O          22.3649   75.6200    2.1798 O.3     1  UNL1       -0.3794
     37 O          21.5438   72.9497    1.7950 O.3     1  UNL1       -0.3258
     38 H          21.5287   73.4876   -2.0215 H       1  UNL1        0.2106
     39 H          23.9209   75.7028   -1.1249 H       1  UNL1        0.2105
     40 H          22.7216   76.4475    1.8315 H       1  UNL1        0.2105
     41 C          22.6530   73.3131    3.9083 C.3     1  UNL1        0.1693
     42 O          22.0230   72.1181    4.3732 O.3     1  UNL1       -0.3794
     43 H          21.9455   72.1981    5.3339 H       1  UNL1        0.2105
@<TRIPOS>BOND
     1    15    16   ar
     2    15    20   ar
     3    15     6    1
     4    16    17   ar
     5    16    21    2
     6    17    18   ar
     7    17    23    1
     8    18    19   ar
     9    18    22    2
    10    19    20   ar
    11     6     7    1
    12     6    11    1
    13     7     8    1
    14     7     9    1
    15     8    13    1
    16     9    10    1
    17     9    12    1
    18    10    11    1
    19    10     5    1
    20    12    14    1
    21     5     4    1
    22     4     1    1
    23     1     2    2
    24     1     3    1
    25     1    24    1
    26    24    25    1
    27    25    26    2
    28    25    27    1
    29    25    28    1
    30    28    29    1
    31    29    30    1
    32    29    37    1
    33    30    31    1
    34    30    34    1
    35    31    32    1
    36    31    35    1
    37    32    33    1
    38    32    36    1
    39    33    41    1
    40    33    37    1
    41    41    42    1
    42    34    38    1
    43    35    39    1
    44    36    40    1
    45    42    43    1
@<TRIPOS>MOLECULE
GDU
 43 45 0 0 0
SMALL
GASTEIGER

@<TRIPOS>ATOM
      1 P          21.2859   72.7440   -5.3848 P.3     1  UNL1        0.2189
      2 O          22.5222   72.7419   -6.1979 O.2     1  UNL1       -0.5170
      3 O          21.0807   74.1981   -4.7241 O.3     1  UNL1       -0.4371
      4 O          20.0258   72.3979   -6.3224 O.3     1  UNL1       -0.3112
      5 C          19.4672   71.1784   -5.8313 C.3     1  UNL1        0.1811
      6 C          16.1323   72.4833   -6.1523 C.3     1  UNL1        0.2383
      7 C          16.8010   72.7843   -7.5180 C.3     1  UNL1        0.1895
      8 O          15.8364   72.7679   -8.5727 O.3     1  UNL1       -0.3779
      9 C          17.7958   71.6030   -7.6599 C.3     1  UNL1        0.1713
     10 C          17.9889   71.1008   -6.2170 C.3     1  UNL1        0.1764
     11 O          17.2142   71.9541   -5.3567 O.3     1  UNL1       -0.3308
     12 O          17.2386   70.5768   -8.4836 O.3     1  UNL1       -0.3794
     13 H          16.3146   72.9616   -9.3910 H       1  UNL1        0.2106
     14 H          17.0863   70.9684   -9.3543 H       1  UNL1        0.2105
     15 N          15.6035   73.7098   -5.5531 N.ar    1  UNL1       -0.2551
     16 C          16.2741   74.8661   -5.6989 C.ar    1  UNL1        0.3323
     17 N          15.8078   76.0086   -5.1610 N.ar    1  UNL1       -0.2743
     18 C          14.6604   76.0093   -4.4556 C.ar    1  UNL1        0.2626
     19 C          13.9462   74.7975   -4.2889 C.ar    1  UNL1        0.0795
     20 C          14.4341   73.6670   -4.8425 C.ar    1  UNL1        0.0869
     21 O          17.3103   74.8812   -6.3330 O.2     1  UNL1       -0.2464
     22 O          14.2400   77.0419   -3.9643 O.2     1  UNL1       -0.2670
     23 H          16.3026   76.8349   -5.2799 H       1  UNL1        0.1734
     24 O          21.4091   71.6394   -4.2198 O.3     1  UNL1       -0.2703
     25 P          22.8005   71.9158   -3.4599 P.3     1  UNL1        0.2208
     26 O          23.4576   70.6269   -3.1500 O.2     1  UNL1       -0.5170
     27 O          23.7632   72.7945   -4.4062 O.3     1  UNL1       -0.4371
     28 O          22.5170   72.7170   -2.0933 O.3     1  UNL1       -0.2858
     29 C          21.2776   72.2305   -1.5766 C.3     1  UNL1        0.2704
     30 C          20.5910   73.3370   -0.7743 C.3     1  UNL1        0.1967
     31 C          21.5170   73.7750    0.3646 C.3     1  UNL1        0.1715
     32 C          21.9190   72.5364    1.1732 C.3     1  UNL1        0.1694
     33 C          22.5072   71.4907    0.2227 C.3     1  UNL1        0.1761
     34 O          20.3205   74.4500   -1.6283 O.3     1  UNL1       -0.3775
     35 O          20.8329   74.7021    1.2101 O.3     1  UNL1       -0.3794
     36 O          20.7691   72.0000    1.8290 O.3     1  UNL1       -0.3794
     37 O          21.5238   71.1051   -0.7367 O.3     1  UNL1       -0.3258
     38 H          19.7419   74.1272   -2.3324 H       1  UNL1        0.2106
     39 H          20.5894   75.4566    0.6588 H       1  UNL1        0.2105
     40 H          20.4301   72.6928    2.4108 H       1  UNL1        0.2105
     41 C          22.9436   70.2628    1.0250 C.3     1  UNL1        0.1693
     42 O          22.4959   69.0786    0.3630 O.3     1  UNL1       -0.3794
     43 H          22.7912   68.3297    0.8990 H       1  UNL1        0.2105
@<TRIPOS>BOND
     1    15    16   ar
     2    15    20   ar
     3    15     6    1
     4    16    17   ar
     5    16    21    2
     6    17    18   ar
     7    17    23    1
     8    18    19   ar
     9    18    22    2
    10    19    20   ar
    11     6     7    1
    12     6    11    1
    13     7     8    1
    14     7     9    1
    15     8    13    1
    16     9    10    1
    17     9    12    1
    18    10    11    1
    19    10     5    1
    20    12    14    1
    21     5     4    1
    22     4     1    1
    23     1     2    2
    24     1     3    1
    25     1    24    1
    26    24    25    1
    27    25    26    2
    28    25    27    1
    29    25    28    1
    30    28    29    1
    31    29    30    1
    32    29    37    1
    33    30    31    1
    34    30    34    1
    35    31    32    1
    36    31    35    1
    37    32    33    1
    38    32    36    1
    39    33    41    1
    40    33    37    1
    41    41    42    1
    42    34    38    1
    43    35    39    1
    44    36    40    1
    45    42    43    1
@<TRIPOS>MOLECULE
GDU
 43 45 0 0 0
SMALL
GASTEIGER

@<TRIPOS>ATOM
      1 P          20.4081   70.0816   -2.0785 P.3     1  UNL1        0.2189
      2 O          19.3192   69.1063   -2.3077 O.2     1  UNL1       -0.5170
      3 O          21.7625   69.5446   -2.7642 O.3     1  UNL1       -0.4371
      4 O          20.0049   71.4983   -2.7243 O.3     1  UNL1       -0.3112
      5 C          19.7798   71.2695   -4.1162 C.3     1  UNL1        0.1811
      6 C          16.8817   71.9104   -6.1453 C.3     1  UNL1        0.2383
      7 C          17.2321   70.4265   -6.4251 C.3     1  UNL1        0.1895
      8 O          16.0553   69.6722   -6.7242 O.3     1  UNL1       -0.3779
      9 C          17.8481   69.9779   -5.0743 C.3     1  UNL1        0.1713
     10 C          18.2774   71.2957   -4.4028 C.3     1  UNL1        0.1764
     11 O          17.9729   72.3637   -5.3164 O.3     1  UNL1       -0.3308
     12 O          16.8723   69.2992   -4.2811 O.3     1  UNL1       -0.3794
     13 H          16.3412   68.7626   -6.8877 H       1  UNL1        0.2106
     14 H          16.6007   68.5169   -4.7801 H       1  UNL1        0.2105
     15 N          16.8298   72.6743   -7.3929 N.ar    1  UNL1       -0.2551
     16 C          17.9198   72.7455   -8.1772 C.ar    1  UNL1        0.3323
     17 N          17.8975   73.4383   -9.3310 N.ar    1  UNL1       -0.2743
     18 C          16.7792   74.0832   -9.7154 C.ar    1  UNL1        0.2626
     19 C          15.6251   74.0218   -8.8965 C.ar    1  UNL1        0.0795
     20 C          15.6735   73.3164   -7.7465 C.ar    1  UNL1        0.0869
     21 O          18.9357   72.1686   -7.8438 O.2     1  UNL1       -0.2464
     22 O          16.7595   74.7146  -10.7573 O.2     1  UNL1       -0.2670
     23 H          18.6921   73.4754   -9.8868 H       1  UNL1        0.1734
     24 O          20.6436   70.2594   -0.4956 O.3     1  UNL1       -0.2703
     25 P          22.2286   70.4314   -0.2761 P.3     1  UNL1        0.2208
     26 O          22.8156   69.1318    0.1186 O.2     1  UNL1       -0.5170
     27 O          22.9088   70.9324   -1.6474 O.3     1  UNL1       -0.4371
     28 O          22.4965   71.5163    0.8820 O.3     1  UNL1       -0.2858
     29 C          21.2336   72.1007    1.2033 C.3     1  UNL1        0.2704
     30 C          21.1558   73.5060    0.6045 C.3     1  UNL1        0.1967
     31 C          22.3021   74.3519    1.1673 C.3     1  UNL1        0.1715
     32 C          22.2501   74.2913    2.6981 C.3     1  UNL1        0.1694
     33 C          22.2469   72.8253    3.1384 C.3     1  UNL1        0.1761
     34 O          21.2703   73.4274   -0.8174 O.3     1  UNL1       -0.3775
     35 O          22.1579   75.7058    0.7328 O.3     1  UNL1       -0.3794
     36 O          21.0635   74.9370    3.1618 O.3     1  UNL1       -0.3794
     37 O          21.0905   72.1696    2.6201 O.3     1  UNL1       -0.3258
     38 H          20.5348   72.8813   -1.1268 H       1  UNL1        0.2106
     39 H          22.1842   75.6943   -0.2323 H       1  UNL1        0.2105
     40 H          21.1060   75.8529    2.8573 H       1  UNL1        0.2105
     41 C          22.2298   72.7537    4.6670 C.3     1  UNL1        0.1693
     42 O          20.9034   72.9960    5.1394 O.3     1  UNL1       -0.3794
     43 H          20.9358   72.9414    6.1045 H       1  UNL1        0.2105
@<TRIPOS>BOND
     1    15    16   ar
     2    15    20   ar
     3    15     6    1
     4    16    17   ar
     5    16    21    2
     6    17    18   ar
     7    17    23    1
     8    18    19   ar
     9    18    22    2
    10    19    20   ar
    11     6     7    1
    12     6    11    1
    13     7     8    1
    14     7     9    1
    15     8    13    1
    16     9    10    1
    17     9    12    1
    18    10    11    1
    19    10     5    1
    20    12    14    1
    21     5     4    1
    22     4     1    1
    23     1     2    2
    24     1     3    1
    25     1    24    1
    26    24    25    1
    27    25    26    2
    28    25    27    1
    29    25    28    1
    30    28    29    1
    31    29    30    1
    32    29    37    1
    33    30    31    1
    34    30    34    1
    35    31    32    1
    36    31    35    1
    37    32    33    1
    38    32    36    1
    39    33    41    1
    40    33    37    1
    41    41    42    1
    42    34    38    1
    43    35    39    1
    44    36    40    1
    45    42    43    1
@<TRIPOS>MOLECULE
GDU
 43 45 0 0 0
SMALL
GASTEIGER

@<TRIPOS>ATOM
      1 P          19.7492   70.4983   -4.1488 P.3     1  UNL1        0.2189
      2 O          18.7188   71.0582   -3.2463 O.2     1  UNL1       -0.5170
      3 O          20.0641   68.9770   -3.7253 O.3     1  UNL1       -0.4371
      4 O          19.2119   70.5332   -5.6644 O.3     1  UNL1       -0.3112
      5 C          17.8652   71.0068   -5.6152 C.3     1  UNL1        0.1811
      6 C          19.0573   73.4890   -7.9271 C.3     1  UNL1        0.2383
      7 C          18.6542   72.2876   -8.8198 C.3     1  UNL1        0.1895
      8 O          18.2054   72.7328  -10.1018 O.3     1  UNL1       -0.3779
      9 C          17.4878   71.6601   -8.0128 C.3     1  UNL1        0.1713
     10 C          17.7006   72.1826   -6.5798 C.3     1  UNL1        0.1764
     11 O          18.8968   72.9808   -6.5856 O.3     1  UNL1       -0.3308
     12 O          16.2299   72.0978   -8.5304 O.3     1  UNL1       -0.3794
     13 H          17.9714   71.9409  -10.6058 H       1  UNL1        0.2106
     14 H          16.1818   71.7912   -9.4461 H       1  UNL1        0.2105
     15 N          20.4491   73.8713   -8.1707 N.ar    1  UNL1       -0.2551
     16 C          21.4168   72.9394   -8.1118 C.ar    1  UNL1        0.3323
     17 N          22.7039   73.2639   -8.3352 N.ar    1  UNL1       -0.2743
     18 C          23.0458   74.5367   -8.6133 C.ar    1  UNL1        0.2626
     19 C          22.0379   75.5300   -8.6729 C.ar    1  UNL1        0.0795
     20 C          20.7544   75.1765   -8.4489 C.ar    1  UNL1        0.0869
     21 O          21.1235   71.7870   -7.8626 O.2     1  UNL1       -0.2464
     22 O          24.2112   74.8322   -8.8109 O.2     1  UNL1       -0.2670
     23 H          23.3887   72.5777   -8.2929 H       1  UNL1        0.1734
     24 O          21.0948   71.3752   -4.0347 O.3     1  UNL1       -0.2703
     25 P          21.9262   70.7936   -2.7855 P.3     1  UNL1        0.2208
     26 O          21.2592   69.5764   -2.2731 O.2     1  UNL1       -0.5170
     27 O          23.4209   70.4264   -3.2602 O.3     1  UNL1       -0.4371
     28 O          21.9916   71.9018   -1.6204 O.3     1  UNL1       -0.2858
     29 C          20.8371   71.7114   -0.8014 C.3     1  UNL1        0.2704
     30 C          20.1783   73.0643   -0.5276 C.3     1  UNL1        0.1967
     31 C          21.1902   73.9799    0.1683 C.3     1  UNL1        0.1715
     32 C          21.7348   73.2574    1.4056 C.3     1  UNL1        0.1694
     33 C          22.2778   71.8896    0.9845 C.3     1  UNL1        0.1761
     34 O          19.7663   73.6545   -1.7618 O.3     1  UNL1       -0.3775
     35 O          20.5474   75.1940    0.5624 O.3     1  UNL1       -0.3794
     36 O          20.6859   73.0872    2.3599 O.3     1  UNL1       -0.3794
     37 O          21.2243   71.1038    0.4289 O.3     1  UNL1       -0.3258
     38 H          19.1374   73.0424   -2.1675 H       1  UNL1        0.2106
     39 H          20.2112   75.6069   -0.2430 H       1  UNL1        0.2105
     40 H          20.3716   73.9711    2.5910 H       1  UNL1        0.2105
     41 C          22.8554   71.1735    2.2075 C.3     1  UNL1        0.1693
     42 O          23.3686   69.8996    1.8142 O.3     1  UNL1       -0.3794
     43 H          23.7230   69.4823    2.6114 H       1  UNL1        0.2105
@<TRIPOS>BOND
     1    15    16   ar
     2    15    20   ar
     3    15     6    1
     4    16    17   ar
     5    16    21    2
     6    17    18   ar
     7    17    23    1
     8    18    19   ar
     9    18    22    2
    10    19    20   ar
    11     6     7    1
    12     6    11    1
    13     7     8    1
    14     7     9    1
    15     8    13    1
    16     9    10    1
    17     9    12    1
    18    10    11    1
    19    10     5    1
    20    12    14    1
    21     5     4    1
    22     4     1    1
    23     1     2    2
    24     1     3    1
    25     1    24    1
    26    24    25    1
    27    25    26    2
    28    25    27    1
    29    25    28    1
    30    28    29    1
    31    29    30    1
    32    29    37    1
    33    30    31    1
    34    30    34    1
    35    31    32    1
    36    31    35    1
    37    32    33    1
    38    32    36    1
    39    33    41    1
    40    33    37    1
    41    41    42    1
    42    34    38    1
    43    35    39    1
    44    36    40    1
    45    42    43    1
@<TRIPOS>MOLECULE
GDU
 43 45 0 0 0
SMALL
GASTEIGER

@<TRIPOS>ATOM
      1 P          22.8990   72.3074   -3.5561 P.3     1  UNL1        0.2189
      2 O          23.8515   73.2924   -2.9976 O.2     1  UNL1       -0.5170
      3 O          23.4541   70.8181   -3.2978 O.3     1  UNL1       -0.4371
      4 O          21.4685   72.4784   -2.8411 O.3     1  UNL1       -0.3112
      5 C          21.3626   71.4340   -1.8724 C.3     1  UNL1        0.1811
      6 C          22.6406   72.1825    1.4039 C.3     1  UNL1        0.2383
      7 C          22.4044   70.6505    1.4190 C.3     1  UNL1        0.1895
      8 O          23.3393   69.9989    2.2819 O.3     1  UNL1       -0.3779
      9 C          22.6592   70.2679   -0.0622 C.3     1  UNL1        0.1713
     10 C          22.4697   71.5903   -0.8283 C.3     1  UNL1        0.1764
     11 O          22.0976   72.5945    0.1315 O.3     1  UNL1       -0.3308
     12 O          23.9889   69.7718   -0.2284 O.3     1  UNL1       -0.3794
     13 H          23.1390   69.0531    2.2466 H       1  UNL1        0.2106
     14 H          24.0628   68.9791    0.3202 H       1  UNL1        0.2105
     15 N          21.9230   72.8281    2.5044 N.ar    1  UNL1       -0.2551
     16 C          20.8160   73.5471    2.2477 C.ar    1  UNL1        0.3323
     17 N          20.1357   74.1478    3.2418 N.ar    1  UNL1       -0.2743
     18 C          20.5614   74.0456    4.5156 C.ar    1  UNL1        0.2626
     19 C          21.7292   73.2963    4.8002 C.ar    1  UNL1        0.0795
     20 C          22.3900   72.7005    3.7849 C.ar    1  UNL1        0.0869
     21 O          20.4196   73.6479    1.1037 O.2     1  UNL1       -0.2464
     22 O          19.9490   74.5930    5.4155 O.2     1  UNL1       -0.2670
     23 H          19.3364   74.6593    3.0389 H       1  UNL1        0.1734
     24 O          22.7417   72.5527   -5.1396 O.3     1  UNL1       -0.2703
     25 P          21.3317   73.2971   -5.3587 P.3     1  UNL1        0.2208
     26 O          21.0602   74.1872   -4.2085 O.2     1  UNL1       -0.5170
     27 O          21.3907   74.1707   -6.7105 O.3     1  UNL1       -0.4371
     28 O          20.1586   72.2020   -5.4797 O.3     1  UNL1       -0.2858
     29 C          18.9430   72.8534   -5.1088 C.3     1  UNL1        0.2704
     30 C          17.9989   71.8391   -4.4613 C.3     1  UNL1        0.1967
     31 C          17.7243   70.7075   -5.4565 C.3     1  UNL1        0.1715
     32 C          17.2226   71.3202   -6.7690 C.3     1  UNL1        0.1694
     33 C          18.2274   72.3732   -7.2428 C.3     1  UNL1        0.1761
     34 O          18.6051   71.3054   -3.2828 O.3     1  UNL1       -0.3775
     35 O          16.7307   69.8296   -4.9231 O.3     1  UNL1       -0.3794
     36 O          15.9489   71.9302   -6.5554 O.3     1  UNL1       -0.3794
     37 O          18.3316   73.4115   -6.2696 O.3     1  UNL1       -0.3258
     38 H          18.7662   72.0517   -2.6895 H       1  UNL1        0.2106
     39 H          17.0829   69.4782   -4.0956 H       1  UNL1        0.2105
     40 H          15.3519   71.2333   -6.2535 H       1  UNL1        0.2105
     41 C          17.7530   72.9672   -8.5710 C.3     1  UNL1        0.1693
     42 O          18.8368   73.6544   -9.1987 O.3     1  UNL1       -0.3794
     43 H          18.4971   74.0123  -10.0304 H       1  UNL1        0.2105
@<TRIPOS>BOND
     1    15    16   ar
     2    15    20   ar
     3    15     6    1
     4    16    17   ar
     5    16    21    2
     6    17    18   ar
     7    17    23    1
     8    18    19   ar
     9    18    22    2
    10    19    20   ar
    11     6     7    1
    12     6    11    1
    13     7     8    1
    14     7     9    1
    15     8    13    1
    16     9    10    1
    17     9    12    1
    18    10    11    1
    19    10     5    1
    20    12    14    1
    21     5     4    1
    22     4     1    1
    23     1     2    2
    24     1     3    1
    25     1    24    1
    26    24    25    1
    27    25    26    2
    28    25    27    1
    29    25    28    1
    30    28    29    1
    31    29    30    1
    32    29    37    1
    33    30    31    1
    34    30    34    1
    35    31    32    1
    36    31    35    1
    37    32    33    1
    38    32    36    1
    39    33    41    1
    40    33    37    1
    41    41    42    1
    42    34    38    1
    43    35    39    1
    44    36    40    1
    45    42    43    1
@<TRIPOS>MOLECULE
GDU
 43 45 0 0 0
SMALL
GASTEIGER

@<TRIPOS>ATOM
      1 P          18.6805   70.4184   -3.0053 P.3     1  UNL1        0.2189
      2 O          19.4287   69.4282   -2.1996 O.2     1  UNL1       -0.5170
      3 O          17.2021   70.6008   -2.3937 O.3     1  UNL1       -0.4371
      4 O          19.4519   71.8293   -2.9741 O.3     1  UNL1       -0.3112
      5 C          18.9379   72.5574   -1.8577 C.3     1  UNL1        0.1811
      6 C          21.3271   74.0456    0.3792 C.3     1  UNL1        0.2383
      7 C          22.1785   73.1606   -0.5667 C.3     1  UNL1        0.1895
      8 O          23.4823   73.7173   -0.7497 O.3     1  UNL1       -0.3779
      9 C          21.3633   73.2163   -1.8849 C.3     1  UNL1        0.1713
     10 C          19.9487   73.6242   -1.4332 C.3     1  UNL1        0.1764
     11 O          19.9695   73.7343    0.0006 O.3     1  UNL1       -0.3308
     12 O          21.9135   74.1925   -2.7717 O.3     1  UNL1       -0.3794
     13 H          23.9587   73.1219   -1.3450 H       1  UNL1        0.2106
     14 H          22.8173   73.9126   -2.9704 H       1  UNL1        0.2105
     15 N          21.5672   73.6882    1.7784 N.ar    1  UNL1       -0.2551
     16 C          21.4622   72.4050    2.1663 C.ar    1  UNL1        0.3323
     17 N          21.6813   72.0493    3.4459 N.ar    1  UNL1       -0.2743
     18 C          22.0013   72.9802    4.3652 C.ar    1  UNL1        0.2626
     19 C          22.1098   74.3367    3.9721 C.ar    1  UNL1        0.0795
     20 C          21.8890   74.6654    2.6815 C.ar    1  UNL1        0.0869
     21 O          21.1747   71.5540    1.3483 O.2     1  UNL1       -0.2464
     22 O          22.1951   72.6599    5.5247 O.2     1  UNL1       -0.2670
     23 H          21.6053   71.1178    3.7074 H       1  UNL1        0.1734
     24 O          18.5706   69.8989   -4.5254 O.3     1  UNL1       -0.2703
     25 P          17.3140   70.6557   -5.1874 P.3     1  UNL1        0.2208
     26 O          16.4673   69.6742   -5.9008 O.2     1  UNL1       -0.5170
     27 O          16.4488   71.3705   -4.0321 O.3     1  UNL1       -0.4371
     28 O          17.8413   71.7662   -6.2261 O.3     1  UNL1       -0.2858
     29 C          19.2655   71.6637   -6.2556 C.3     1  UNL1        0.2704
     30 C          19.8656   73.0183   -6.6352 C.3     1  UNL1        0.1967
     31 C          19.3250   73.4366   -8.0060 C.3     1  UNL1        0.1715
     32 C          19.5894   72.3034   -9.0037 C.3     1  UNL1        0.1694
     33 C          19.0080   71.0024   -8.4448 C.3     1  UNL1        0.1761
     34 O          19.5015   73.9942   -5.6573 O.3     1  UNL1       -0.3775
     35 O          19.9870   74.6263   -8.4406 O.3     1  UNL1       -0.3794
     36 O          20.9967   72.1580   -9.1997 O.3     1  UNL1       -0.3794
     37 O          19.6496   70.6788   -7.2121 O.3     1  UNL1       -0.3258
     38 H          19.8553   73.6870   -4.8115 H       1  UNL1        0.2106
     39 H          19.8037   75.3059   -7.7797 H       1  UNL1        0.2105
     40 H          21.3195   73.0002   -9.5458 H       1  UNL1        0.2105
     41 C          19.2365   69.8707   -9.4493 C.3     1  UNL1        0.1693
     42 O          19.1124   70.3816  -10.7776 O.3     1  UNL1       -0.3794
     43 H          19.2638   69.6391  -11.3784 H       1  UNL1        0.2105
@<TRIPOS>BOND
     1    15    16   ar
     2    15    20   ar
     3    15     6    1
     4    16    17   ar
     5    16    21    2
     6    17    18   ar
     7    17    23    1
     8    18    19   ar
     9    18    22    2
    10    19    20   ar
    11     6     7    1
    12     6    11    1
    13     7     8    1
    14     7     9    1
    15     8    13    1
    16     9    10    1
    17     9    12    1
    18    10    11    1
    19    10     5    1
    20    12    14    1
    21     5     4    1
    22     4     1    1
    23     1     2    2
    24     1     3    1
    25     1    24    1
    26    24    25    1
    27    25    26    2
    28    25    27    1
    29    25    28    1
    30    28    29    1
    31    29    30    1
    32    29    37    1
    33    30    31    1
    34    30    34    1
    35    31    32    1
    36    31    35    1
    37    32    33    1
    38    32    36    1
    39    33    41    1
    40    33    37    1
    41    41    42    1
    42    34    38    1
    43    35    39    1
    44    36    40    1
    45    42    43    1
@<TRIPOS>MOLECULE
GDU
 43 45 0 0 0
SMALL
GASTEIGER

@<TRIPOS>ATOM
      1 P          17.0210   71.4734   -3.1507 P.3     1  UNL1        0.2189
      2 O          16.6967   70.3120   -4.0083 O.2     1  UNL1       -0.5170
      3 O          15.8491   71.6837   -2.0665 O.3     1  UNL1       -0.4371
      4 O          18.4135   71.2079   -2.3910 O.3     1  UNL1       -0.3112
      5 C          19.3054   72.2519   -2.7848 C.3     1  UNL1        0.1811
      6 C          22.2395   72.0770   -0.7141 C.3     1  UNL1        0.2383
      7 C          21.4619   70.7738   -0.3980 C.3     1  UNL1        0.1895
      8 O          22.3588   69.7161   -0.0515 O.3     1  UNL1       -0.3779
      9 C          20.7564   70.4809   -1.7477 C.3     1  UNL1        0.1713
     10 C          20.7447   71.8425   -2.4671 C.3     1  UNL1        0.1764
     11 O          21.3413   72.8038   -1.5793 O.3     1  UNL1       -0.3308
     12 O          21.4964   69.5168   -2.4993 O.3     1  UNL1       -0.3794
     13 H          21.8144   68.9380    0.1329 H       1  UNL1        0.2106
     14 H          21.5183   68.7070   -1.9716 H       1  UNL1        0.2105
     15 N          22.5009   72.8343    0.5111 N.ar    1  UNL1       -0.2551
     16 C          21.9420   72.4421    1.6696 C.ar    1  UNL1        0.3323
     17 N          22.1691   73.1187    2.8108 N.ar    1  UNL1       -0.2743
     18 C          22.9565   74.2115    2.8083 C.ar    1  UNL1        0.2626
     19 C          23.5472   74.6397    1.5943 C.ar    1  UNL1        0.0795
     20 C          23.3063   73.9403    0.4650 C.ar    1  UNL1        0.0869
     21 O          21.2299   71.4579    1.6875 O.2     1  UNL1       -0.2464
     22 O          23.1587   74.8273    3.8400 O.2     1  UNL1       -0.2670
     23 H          21.7610   72.8189    3.6387 H       1  UNL1        0.1734
     24 O          17.1492   72.7939   -4.0631 O.3     1  UNL1       -0.2703
     25 P          16.3675   72.4897   -5.4365 P.3     1  UNL1        0.2208
     26 O          16.2493   71.0268   -5.6231 O.2     1  UNL1       -0.5170
     27 O          14.8965   73.1426   -5.3724 O.3     1  UNL1       -0.4371
     28 O          17.1818   73.1250   -6.6708 O.3     1  UNL1       -0.2858
     29 C          18.5703   72.9963   -6.3620 C.3     1  UNL1        0.2704
     30 C          19.2820   74.3176   -6.6569 C.3     1  UNL1        0.1967
     31 C          19.0870   74.6701   -8.1348 C.3     1  UNL1        0.1715
     32 C          19.5422   73.4798   -8.9866 C.3     1  UNL1        0.1694
     33 C          18.8086   72.2215   -8.5160 C.3     1  UNL1        0.1761
     34 O          18.7298   75.3514   -5.8398 O.3     1  UNL1       -0.3775
     35 O          19.8667   75.8227   -8.4604 O.3     1  UNL1       -0.3794
     36 O          20.9516   73.2995   -8.8414 O.3     1  UNL1       -0.3794
     37 O          19.1367   71.9543   -7.1533 O.3     1  UNL1       -0.3258
     38 H          18.8683   75.0846   -4.9208 H       1  UNL1        0.2106
     39 H          19.5552   76.5403   -7.8945 H       1  UNL1        0.2105
     40 H          21.3707   74.1159   -9.1433 H       1  UNL1        0.2105
     41 C          19.2304   71.0330   -9.3828 C.3     1  UNL1        0.1693
     42 O          18.1246   70.1421   -9.5390 O.3     1  UNL1       -0.3794
     43 H          18.4312   69.4092  -10.0906 H       1  UNL1        0.2105
@<TRIPOS>BOND
     1    15    16   ar
     2    15    20   ar
     3    15     6    1
     4    16    17   ar
     5    16    21    2
     6    17    18   ar
     7    17    23    1
     8    18    19   ar
     9    18    22    2
    10    19    20   ar
    11     6     7    1
    12     6    11    1
    13     7     8    1
    14     7     9    1
    15     8    13    1
    16     9    10    1
    17     9    12    1
    18    10    11    1
    19    10     5    1
    20    12    14    1
    21     5     4    1
    22     4     1    1
    23     1     2    2
    24     1     3    1
    25     1    24    1
    26    24    25    1
    27    25    26    2
    28    25    27    1
    29    25    28    1
    30    28    29    1
    31    29    30    1
    32    29    37    1
    33    30    31    1
    34    30    34    1
    35    31    32    1
    36    31    35    1
    37    32    33    1
    38    32    36    1
    39    33    41    1
    40    33    37    1
    41    41    42    1
    42    34    38    1
    43    35    39    1
    44    36    40    1
    45    42    43    1
@<TRIPOS>MOLECULE
GDU
 43 45 0 0 0
SMALL
GASTEIGER

@<TRIPOS>ATOM
      1 P          18.6746   72.7328   -2.6839 P.3     1  UNL1        0.2189
      2 O          19.0505   73.3650   -1.4000 O.2     1  UNL1       -0.5170
      3 O          18.1328   73.8597   -3.6985 O.3     1  UNL1       -0.4371
      4 O          19.9609   72.0090   -3.3231 O.3     1  UNL1       -0.3112
      5 C          20.9219   73.0319   -3.5886 C.3     1  UNL1        0.1811
      6 C          22.8967   72.5007   -0.6313 C.3     1  UNL1        0.2383
      7 C          22.4296   71.0824   -1.0473 C.3     1  UNL1        0.1895
      8 O          23.3961   70.0975   -0.6745 O.3     1  UNL1       -0.3779
      9 C          22.3369   71.2102   -2.5901 C.3     1  UNL1        0.1713
     10 C          22.2167   72.7261   -2.8334 C.3     1  UNL1        0.1764
     11 O          22.1951   73.3685   -1.5469 O.3     1  UNL1       -0.3308
     12 O          23.5165   70.6899   -3.2063 O.3     1  UNL1       -0.3794
     13 H          23.0466   69.2417   -0.9598 H       1  UNL1        0.2106
     14 H          23.5669   69.7540   -2.9690 H       1  UNL1        0.2105
     15 N          22.5103   72.7888    0.7509 N.ar    1  UNL1       -0.2551
     16 C          21.6205   71.9958    1.3736 C.ar    1  UNL1        0.3323
     17 N          21.2510   72.2365    2.6454 N.ar    1  UNL1       -0.2743
     18 C          21.7623   73.2876    3.3147 C.ar    1  UNL1        0.2626
     19 C          22.6962   74.1348    2.6695 C.ar    1  UNL1        0.0795
     20 C          23.0527   73.8681    1.3951 C.ar    1  UNL1        0.0869
     21 O          21.1511   71.0436    0.7828 O.2     1  UNL1       -0.2464
     22 O          21.4248   73.5090    4.4643 O.2     1  UNL1       -0.2670
     23 H          20.6108   71.6513    3.0807 H       1  UNL1        0.1734
     24 O          17.5172   71.6436   -2.4261 O.3     1  UNL1       -0.2703
     25 P          16.8376   71.3383   -3.8526 P.3     1  UNL1        0.2208
     26 O          16.6672   69.8776   -4.0150 O.2     1  UNL1       -0.5170
     27 O          15.3983   72.0574   -3.9260 O.3     1  UNL1       -0.4371
     28 O          17.7792   71.9038   -5.0289 O.3     1  UNL1       -0.2858
     29 C          17.6984   70.9728   -6.1089 C.3     1  UNL1        0.2704
     30 C          19.0716   70.8380   -6.7688 C.3     1  UNL1        0.1967
     31 C          19.5198   72.2134   -7.2727 C.3     1  UNL1        0.1715
     32 C          18.4186   72.7892   -8.1701 C.3     1  UNL1        0.1694
     33 C          17.0943   72.7778   -7.4026 C.3     1  UNL1        0.1761
     34 O          20.0146   70.3454   -5.8152 O.3     1  UNL1       -0.3775
     35 O          20.7306   72.0798   -8.0200 O.3     1  UNL1       -0.3794
     36 O          18.2992   71.9937   -9.3503 O.3     1  UNL1       -0.3794
     37 O          16.7461   71.4363   -7.0633 O.3     1  UNL1       -0.3258
     38 H          19.6893   69.4838   -5.5207 H       1  UNL1        0.2106
     39 H          21.3889   71.7045   -7.4216 H       1  UNL1        0.2105
     40 H          19.1553   72.0252   -9.7968 H       1  UNL1        0.2105
     41 C          15.9943   73.3827   -8.2778 C.3     1  UNL1        0.1693
     42 O          15.3870   74.4774   -7.5894 O.3     1  UNL1       -0.3794
     43 H          14.7018   74.8300   -8.1737 H       1  UNL1        0.2105
@<TRIPOS>BOND
     1    15    16   ar
     2    15    20   ar
     3    15     6    1
     4    16    17   ar
     5    16    21    2
     6    17    18   ar
     7    17    23    1
     8    18    19   ar
     9    18    22    2
    10    19    20   ar
    11     6     7    1
    12     6    11    1
    13     7     8    1
    14     7     9    1
    15     8    13    1
    16     9    10    1
    17     9    12    1
    18    10    11    1
    19    10     5    1
    20    12    14    1
    21     5     4    1
    22     4     1    1
    23     1     2    2
    24     1     3    1
    25     1    24    1
    26    24    25    1
    27    25    26    2
    28    25    27    1
    29    25    28    1
    30    28    29    1
    31    29    30    1
    32    29    37    1
    33    30    31    1
    34    30    34    1
    35    31    32    1
    36    31    35    1
    37    32    33    1
    38    32    36    1
    39    33    41    1
    40    33    37    1
    41    41    42    1
    42    34    38    1
    43    35    39    1
    44    36    40    1
    45    42    43    1
@<TRIPOS>MOLECULE
GDU
 43 45 0 0 0
SMALL
GASTEIGER

@<TRIPOS>ATOM
      1 P          22.2283   70.8583   -2.4344 P.3     1  UNL1        0.2189
      2 O          23.4737   70.7497   -3.2260 O.2     1  UNL1       -0.5170
      3 O          22.3782   70.0031   -1.0782 O.3     1  UNL1       -0.4371
      4 O          21.9571   72.4009   -2.0688 O.3     1  UNL1       -0.3112
      5 C          22.6686   72.6708   -0.8599 C.3     1  UNL1        0.1811
      6 C          24.3369   75.7115   -1.8077 C.3     1  UNL1        0.2383
      7 C          23.0416   75.6967   -2.6591 C.3     1  UNL1        0.1895
      8 O          22.5877   77.0268   -2.9200 O.3     1  UNL1       -0.3779
      9 C          22.0513   74.9463   -1.7310 C.3     1  UNL1        0.1713
     10 C          22.9619   74.1690   -0.7624 C.3     1  UNL1        0.1764
     11 O          24.3226   74.4266   -1.1502 O.3     1  UNL1       -0.3308
     12 O          21.2311   75.8757   -1.0200 O.3     1  UNL1       -0.3794
     13 H          21.7831   76.9476   -3.4512 H       1  UNL1        0.2106
     14 H          20.7303   76.3710   -1.6823 H       1  UNL1        0.2105
     15 N          25.5177   75.8399   -2.6633 N.ar    1  UNL1       -0.2551
     16 C          25.7391   74.9364   -3.6344 C.ar    1  UNL1        0.3323
     17 N          26.8152   75.0336   -4.4371 N.ar    1  UNL1       -0.2743
     18 C          27.6976   76.0379   -4.2728 C.ar    1  UNL1        0.2626
     19 C          27.4804   76.9937   -3.2502 C.ar    1  UNL1        0.0795
     20 C          26.3908   76.8750   -2.4621 C.ar    1  UNL1        0.0869
     21 O          24.9516   74.0253   -3.7950 O.2     1  UNL1       -0.2464
     22 O          28.6745   76.1240   -4.9958 O.2     1  UNL1       -0.2670
     23 H          26.9570   74.3751   -5.1356 H       1  UNL1        0.1734
     24 O          20.9945   70.2845   -3.2953 O.3     1  UNL1       -0.2703
     25 P          20.3883   71.5233   -4.1248 P.3     1  UNL1        0.2208
     26 O          19.5747   72.3690   -3.2238 O.2     1  UNL1       -0.5170
     27 O          21.5929   72.3984   -4.7389 O.3     1  UNL1       -0.4371
     28 O          19.4652   70.9691   -5.3210 O.3     1  UNL1       -0.2858
     29 C          18.3976   71.9029   -5.4879 C.3     1  UNL1        0.2704
     30 C          17.0708   71.1478   -5.5824 C.3     1  UNL1        0.1967
     31 C          17.1320   70.1787   -6.7671 C.3     1  UNL1        0.1715
     32 C          17.5263   70.9642   -8.0229 C.3     1  UNL1        0.1694
     33 C          18.8206   71.7322   -7.7437 C.3     1  UNL1        0.1761
     34 O          16.8492   70.4168   -4.3751 O.3     1  UNL1       -0.3775
     35 O          15.8516   69.5733   -6.9588 O.3     1  UNL1       -0.3794
     36 O          16.4842   71.8810   -8.3599 O.3     1  UNL1       -0.3794
     37 O          18.6107   72.6579   -6.6783 O.3     1  UNL1       -0.3258
     38 H          16.8251   71.0642   -3.6573 H       1  UNL1        0.2106
     39 H          15.6399   69.1021   -6.1431 H       1  UNL1        0.2105
     40 H          15.6901   71.3550   -8.5211 H       1  UNL1        0.2105
     41 C          19.2418   72.4932   -9.0028 C.3     1  UNL1        0.1693
     42 O          18.5919   71.9254  -10.1413 O.3     1  UNL1       -0.3794
     43 H          18.8828   72.4327  -10.9116 H       1  UNL1        0.2105
@<TRIPOS>BOND
     1    15    16   ar
     2    15    20   ar
     3    15     6    1
     4    16    17   ar
     5    16    21    2
     6    17    18   ar
     7    17    23    1
     8    18    19   ar
     9    18    22    2
    10    19    20   ar
    11     6     7    1
    12     6    11    1
    13     7     8    1
    14     7     9    1
    15     8    13    1
    16     9    10    1
    17     9    12    1
    18    10    11    1
    19    10     5    1
    20    12    14    1
    21     5     4    1
    22     4     1    1
    23     1     2    2
    24     1     3    1
    25     1    24    1
    26    24    25    1
    27    25    26    2
    28    25    27    1
    29    25    28    1
    30    28    29    1
    31    29    30    1
    32    29    37    1
    33    30    31    1
    34    30    34    1
    35    31    32    1
    36    31    35    1
    37    32    33    1
    38    32    36    1
    39    33    41    1
    40    33    37    1
    41    41    42    1
    42    34    38    1
    43    35    39    1
    44    36    40    1
    45    42    43    1
@<TRIPOS>MOLECULE
GDU
 43 45 0 0 0
SMALL
GASTEIGER

@<TRIPOS>ATOM
      1 P          22.3143   74.5056   -5.0603 P.3     1  UNL1        0.2189
      2 O          21.7637   75.7693   -4.5223 O.2     1  UNL1       -0.5170
      3 O          23.8545   74.3584   -4.6140 O.3     1  UNL1       -0.4371
      4 O          21.4684   73.2638   -4.4864 O.3     1  UNL1       -0.3112
      5 C          21.1926   73.5499   -3.1143 C.3     1  UNL1        0.1811
      6 C          22.1094   72.0522    0.0232 C.3     1  UNL1        0.2383
      7 C          21.0498   71.0901   -0.5724 C.3     1  UNL1        0.1895
      8 O          21.2949   69.7435   -0.1604 O.3     1  UNL1       -0.3779
      9 C          21.2832   71.2533   -2.0969 C.3     1  UNL1        0.1713
     10 C          22.0038   72.6085   -2.2222 C.3     1  UNL1        0.1764
     11 O          22.1129   73.1622   -0.8995 O.3     1  UNL1       -0.3308
     12 O          22.1048   70.1945   -2.5927 O.3     1  UNL1       -0.3794
     13 H          20.6041   69.1987   -0.5627 H       1  UNL1        0.2106
     14 H          21.6260   69.3700   -2.4325 H       1  UNL1        0.2105
     15 N          21.7132   72.4948    1.3611 N.ar    1  UNL1       -0.2551
     16 C          22.1367   71.8147    2.4411 C.ar    1  UNL1        0.3323
     17 N          21.7898   72.2027    3.6824 N.ar    1  UNL1       -0.2743
     18 C          21.0002   73.2790    3.8627 C.ar    1  UNL1        0.2626
     19 C          20.5419   74.0017    2.7340 C.ar    1  UNL1        0.0795
     20 C          20.9083   73.5934    1.5006 C.ar    1  UNL1        0.0869
     21 O          22.8498   70.8421    2.2942 O.2     1  UNL1       -0.2464
     22 O          20.6818   73.6281    4.9857 O.2     1  UNL1       -0.2670
     23 H          22.1080   71.7026    4.4508 H       1  UNL1        0.1734
     24 O          22.2220   74.5224   -6.6676 O.3     1  UNL1       -0.2703
     25 P          20.6720   74.7368   -7.0438 P.3     1  UNL1        0.2208
     26 O          20.0617   75.6928   -6.0937 O.2     1  UNL1       -0.5170
     27 O          20.5592   75.3221   -8.5401 O.3     1  UNL1       -0.4371
     28 O          19.8985   73.3280   -6.9603 O.3     1  UNL1       -0.2858
     29 C          18.7787   73.4165   -7.8422 C.3     1  UNL1        0.2704
     30 C          17.4884   73.1986   -7.0503 C.3     1  UNL1        0.1967
     31 C          17.5414   71.8224   -6.3797 C.3     1  UNL1        0.1715
     32 C          17.8353   70.7663   -7.4510 C.3     1  UNL1        0.1694
     33 C          19.1014   71.1680   -8.2118 C.3     1  UNL1        0.1761
     34 O          17.3616   74.2140   -6.0532 O.3     1  UNL1       -0.3775
     35 O          16.2852   71.5426   -5.7581 O.3     1  UNL1       -0.3794
     36 O          16.7337   70.6846   -8.3564 O.3     1  UNL1       -0.3794
     37 O          18.8966   72.4234   -8.8583 O.3     1  UNL1       -0.3258
     38 H          17.3396   75.0611   -6.5189 H       1  UNL1        0.2106
     39 H          16.1366   72.2360   -5.1028 H       1  UNL1        0.2105
     40 H          15.9601   70.4354   -7.8342 H       1  UNL1        0.2105
     41 C          19.4233   70.1020   -9.2616 C.3     1  UNL1        0.1693
     42 O          18.7003   70.3827  -10.4614 O.3     1  UNL1       -0.3794
     43 H          18.9311   69.6901  -11.0957 H       1  UNL1        0.2105
@<TRIPOS>BOND
     1    15    16   ar
     2    15    20   ar
     3    15     6    1
     4    16    17   ar
     5    16    21    2
     6    17    18   ar
     7    17    23    1
     8    18    19   ar
     9    18    22    2
    10    19    20   ar
    11     6     7    1
    12     6    11    1
    13     7     8    1
    14     7     9    1
    15     8    13    1
    16     9    10    1
    17     9    12    1
    18    10    11    1
    19    10     5    1
    20    12    14    1
    21     5     4    1
    22     4     1    1
    23     1     2    2
    24     1     3    1
    25     1    24    1
    26    24    25    1
    27    25    26    2
    28    25    27    1
    29    25    28    1
    30    28    29    1
    31    29    30    1
    32    29    37    1
    33    30    31    1
    34    30    34    1
    35    31    32    1
    36    31    35    1
    37    32    33    1
    38    32    36    1
    39    33    41    1
    40    33    37    1
    41    41    42    1
    42    34    38    1
    43    35    39    1
    44    36    40    1
    45    42    43    1
@<TRIPOS>MOLECULE
GDU
 43 45 0 0 0
SMALL
GASTEIGER

@<TRIPOS>ATOM
      1 P          19.5658   69.6935   -3.1231 P.3     1  UNL1        0.2189
      2 O          20.8354   68.9863   -2.8445 O.2     1  UNL1       -0.5170
      3 O          18.3315   68.8156   -2.5767 O.3     1  UNL1       -0.4371
      4 O          19.5748   71.1234   -2.3868 O.3     1  UNL1       -0.3112
      5 C          20.7810   71.1886   -1.6243 C.3     1  UNL1        0.1811
      6 C          21.6336   73.7955    0.7005 C.3     1  UNL1        0.2383
      7 C          22.9857   73.3854    0.0626 C.3     1  UNL1        0.1895
      8 O          23.8814   74.4980    0.0067 O.3     1  UNL1       -0.3779
      9 C          22.5541   72.9507   -1.3622 C.3     1  UNL1        0.1713
     10 C          21.0528   72.6386   -1.2196 C.3     1  UNL1        0.1764
     11 O          20.7015   72.8344    0.1611 O.3     1  UNL1       -0.3308
     12 O          22.7647   74.0134   -2.2940 O.3     1  UNL1       -0.3794
     13 H          24.6994   74.1774   -0.3981 H       1  UNL1        0.2106
     14 H          23.7130   74.2017   -2.2945 H       1  UNL1        0.2105
     15 N          21.6963   73.6907    2.1592 N.ar    1  UNL1       -0.2551
     16 C          21.5510   72.4907    2.7485 C.ar    1  UNL1        0.3323
     17 N          21.6079   72.3665    4.0876 N.ar    1  UNL1       -0.2743
     18 C          21.8026   73.4502    4.8633 C.ar    1  UNL1        0.2626
     19 C          21.9516   74.7215    4.2568 C.ar    1  UNL1        0.0795
     20 C          21.8945   74.8172    2.9114 C.ar    1  UNL1        0.0869
     21 O          21.3752   71.5041    2.0617 O.2     1  UNL1       -0.2464
     22 O          21.8496   73.3394    6.0758 O.2     1  UNL1       -0.2670
     23 H          21.5053   71.4921    4.4957 H       1  UNL1        0.1734
     24 O          19.4090   69.9072   -4.7113 O.3     1  UNL1       -0.2703
     25 P          18.0191   70.6848   -4.9425 P.3     1  UNL1        0.2208
     26 O          16.9770   69.7195   -5.3563 O.2     1  UNL1       -0.5170
     27 O          17.5714   71.4023   -3.5718 O.3     1  UNL1       -0.4371
     28 O          18.2092   71.7959   -6.0911 O.3     1  UNL1       -0.2858
     29 C          17.8053   71.1940   -7.3217 C.3     1  UNL1        0.2704
     30 C          19.0170   71.0615   -8.2455 C.3     1  UNL1        0.1967
     31 C          19.6100   72.4520   -8.4926 C.3     1  UNL1        0.1715
     32 C          18.4981   73.3752   -9.0035 C.3     1  UNL1        0.1694
     33 C          17.3257   73.3337   -8.0203 C.3     1  UNL1        0.1761
     34 O          19.9977   70.2235   -7.6313 O.3     1  UNL1       -0.3775
     35 O          20.6504   72.3638   -9.4685 O.3     1  UNL1       -0.3794
     36 O          18.0644   72.9338  -10.2908 O.3     1  UNL1       -0.3794
     37 O          16.8104   72.0055   -7.9415 O.3     1  UNL1       -0.3258
     38 H          19.5797   69.3635   -7.4882 H       1  UNL1        0.2106
     39 H          21.3193   71.7662   -9.1112 H       1  UNL1        0.2105
     40 H          18.8341   72.9710  -10.8734 H       1  UNL1        0.2105
     41 C          16.2234   74.2789   -8.5036 C.3     1  UNL1        0.1693
     42 O          15.3025   73.5561   -9.3224 O.3     1  UNL1       -0.3794
     43 H          14.6251   74.1859   -9.6049 H       1  UNL1        0.2105
@<TRIPOS>BOND
     1    15    16   ar
     2    15    20   ar
     3    15     6    1
     4    16    17   ar
     5    16    21    2
     6    17    18   ar
     7    17    23    1
     8    18    19   ar
     9    18    22    2
    10    19    20   ar
    11     6     7    1
    12     6    11    1
    13     7     8    1
    14     7     9    1
    15     8    13    1
    16     9    10    1
    17     9    12    1
    18    10    11    1
    19    10     5    1
    20    12    14    1
    21     5     4    1
    22     4     1    1
    23     1     2    2
    24     1     3    1
    25     1    24    1
    26    24    25    1
    27    25    26    2
    28    25    27    1
    29    25    28    1
    30    28    29    1
    31    29    30    1
    32    29    37    1
    33    30    31    1
    34    30    34    1
    35    31    32    1
    36    31    35    1
    37    32    33    1
    38    32    36    1
    39    33    41    1
    40    33    37    1
    41    41    42    1
    42    34    38    1
    43    35    39    1
    44    36    40    1
    45    42    43    1
@<TRIPOS>MOLECULE
GDU
 43 45 0 0 0
SMALL
GASTEIGER

@<TRIPOS>ATOM
      1 P          18.3722   71.2942   -4.0984 P.3     1  UNL1        0.2189
      2 O          19.3717   71.4373   -5.1801 O.2     1  UNL1       -0.5170
      3 O          18.1923   72.7054   -3.3439 O.3     1  UNL1       -0.4371
      4 O          16.9634   70.8379   -4.7260 O.3     1  UNL1       -0.3112
      5 C          17.2598   69.9637   -5.8162 C.3     1  UNL1        0.1811
      6 C          16.0498   72.6327   -7.8994 C.3     1  UNL1        0.2383
      7 C          17.5653   72.5494   -8.2147 C.3     1  UNL1        0.1895
      8 O          17.8273   72.9384   -9.5650 O.3     1  UNL1       -0.3779
      9 C          17.8579   71.0406   -8.0071 C.3     1  UNL1        0.1713
     10 C          16.7025   70.5549   -7.1123 C.3     1  UNL1        0.1764
     11 O          15.8795   71.6961   -6.8144 O.3     1  UNL1       -0.3308
     12 O          17.8521   70.3535   -9.2601 O.3     1  UNL1       -0.3794
     13 H          18.7830   72.8651   -9.6959 H       1  UNL1        0.2106
     14 H          18.5572   70.7417   -9.7956 H       1  UNL1        0.2105
     15 N          15.6824   73.9849   -7.4760 N.ar    1  UNL1       -0.2551
     16 C          15.1791   74.8510   -8.3732 C.ar    1  UNL1        0.3323
     17 N          14.8301   76.0990   -8.0091 N.ar    1  UNL1       -0.2743
     18 C          14.9896   76.5053   -6.7349 C.ar    1  UNL1        0.2626
     19 C          15.5240   75.6057   -5.7802 C.ar    1  UNL1        0.0795
     20 C          15.8618   74.3585   -6.1713 C.ar    1  UNL1        0.0869
     21 O          15.0290   74.4986   -9.5262 O.2     1  UNL1       -0.2464
     22 O          14.6784   77.6363   -6.4055 O.2     1  UNL1       -0.2670
     23 H          14.4644   76.7094   -8.6689 H       1  UNL1        0.1734
     24 O          18.8768   70.1851   -3.0460 O.3     1  UNL1       -0.2703
     25 P          20.4214   70.5091   -2.7312 P.3     1  UNL1        0.2208
     26 O          21.1646   69.2423   -2.5527 O.2     1  UNL1       -0.5170
     27 O          21.0573   71.3352   -3.9590 O.3     1  UNL1       -0.4371
     28 O          20.5235   71.3865   -1.3859 O.3     1  UNL1       -0.2858
     29 C          21.9062   71.4467   -1.0336 C.3     1  UNL1        0.2704
     30 C          22.0775   71.0328    0.4289 C.3     1  UNL1        0.1967
     31 C          21.2527   71.9731    1.3131 C.3     1  UNL1        0.1715
     32 C          21.6487   73.4191    0.9937 C.3     1  UNL1        0.1694
     33 C          21.5079   73.6526   -0.5125 C.3     1  UNL1        0.1761
     34 O          21.6235   69.6893    0.6024 O.3     1  UNL1       -0.3775
     35 O          21.5172   71.6932    2.6893 O.3     1  UNL1       -0.3794
     36 O          23.0018   73.6431    1.3923 O.3     1  UNL1       -0.3794
     37 O          22.3847   72.7767   -1.2195 O.3     1  UNL1       -0.3258
     38 H          22.1643   69.1351    0.0233 H       1  UNL1        0.2106
     39 H          21.2653   70.7735    2.8413 H       1  UNL1        0.2105
     40 H          23.0441   73.4793    2.3435 H       1  UNL1        0.2105
     41 C          21.8682   75.1040   -0.8377 C.3     1  UNL1        0.1693
     42 O          23.2648   75.1944   -1.1245 O.3     1  UNL1       -0.3794
     43 H          23.4500   76.1223   -1.3244 H       1  UNL1        0.2105
@<TRIPOS>BOND
     1    15    16   ar
     2    15    20   ar
     3    15     6    1
     4    16    17   ar
     5    16    21    2
     6    17    18   ar
     7    17    23    1
     8    18    19   ar
     9    18    22    2
    10    19    20   ar
    11     6     7    1
    12     6    11    1
    13     7     8    1
    14     7     9    1
    15     8    13    1
    16     9    10    1
    17     9    12    1
    18    10    11    1
    19    10     5    1
    20    12    14    1
    21     5     4    1
    22     4     1    1
    23     1     2    2
    24     1     3    1
    25     1    24    1
    26    24    25    1
    27    25    26    2
    28    25    27    1
    29    25    28    1
    30    28    29    1
    31    29    30    1
    32    29    37    1
    33    30    31    1
    34    30    34    1
    35    31    32    1
    36    31    35    1
    37    32    33    1
    38    32    36    1
    39    33    41    1
    40    33    37    1
    41    41    42    1
    42    34    38    1
    43    35    39    1
    44    36    40    1
    45    42    43    1
@<TRIPOS>MOLECULE
GDU
 43 45 0 0 0
SMALL
GASTEIGER

@<TRIPOS>ATOM
      1 P          19.4944   69.9391   -3.0685 P.3     1  UNL1        0.2189
      2 O          19.3047   71.2278   -2.3666 O.2     1  UNL1       -0.5170
      3 O          18.5683   68.8138   -2.3838 O.3     1  UNL1       -0.4371
      4 O          19.0837   70.1041   -4.6148 O.3     1  UNL1       -0.3112
      5 C          17.7436   70.5981   -4.6365 C.3     1  UNL1        0.1811
      6 C          18.7968   72.3938   -7.5679 C.3     1  UNL1        0.2383
      7 C          18.6046   70.9344   -8.0538 C.3     1  UNL1        0.1895
      8 O          18.2001   70.9024   -9.4244 O.3     1  UNL1       -0.3779
      9 C          17.4656   70.4315   -7.1290 C.3     1  UNL1        0.1713
     10 C          17.5108   71.3900   -5.9245 C.3     1  UNL1        0.1764
     11 O          18.6013   72.3023   -6.1408 O.3     1  UNL1       -0.3308
     12 O          16.2054   70.5162   -7.7973 O.3     1  UNL1       -0.3794
     13 H          18.0986   69.9705   -9.6635 H       1  UNL1        0.2106
     14 H          16.2603   69.9413   -8.5726 H       1  UNL1        0.2105
     15 N          20.1475   72.8680   -7.8741 N.ar    1  UNL1       -0.2551
     16 C          20.5847   72.8601   -9.1457 C.ar    1  UNL1        0.3323
     17 N          21.8210   73.2940   -9.4546 N.ar    1  UNL1       -0.2743
     18 C          22.6478   73.7362   -8.4876 C.ar    1  UNL1        0.2626
     19 C          22.2028   73.7448   -7.1429 C.ar    1  UNL1        0.0795
     20 C          20.9568   73.3081   -6.8615 C.ar    1  UNL1        0.0869
     21 O          19.8501   72.4646  -10.0288 O.2     1  UNL1       -0.2464
     22 O          23.7686   74.1246   -8.7656 O.2     1  UNL1       -0.2670
     23 H          22.1185   73.2853  -10.3783 H       1  UNL1        0.1734
     24 O          21.0390   69.4959   -2.9665 O.3     1  UNL1       -0.2703
     25 P          21.9015   70.8445   -2.8014 P.3     1  UNL1        0.2208
     26 O          23.3434   70.5136   -2.8253 O.2     1  UNL1       -0.5170
     27 O          21.5621   71.8500   -4.0130 O.3     1  UNL1       -0.4371
     28 O          21.5347   71.5494   -1.4019 O.3     1  UNL1       -0.2858
     29 C          22.7122   71.5070   -0.5948 C.3     1  UNL1        0.2704
     30 C          22.3450   71.0495    0.8177 C.3     1  UNL1        0.1967
     31 C          21.3203   72.0239    1.4068 C.3     1  UNL1        0.1715
     32 C          21.8832   73.4462    1.3075 C.3     1  UNL1        0.1694
     33 C          22.2838   73.7227   -0.1438 C.3     1  UNL1        0.1761
     34 O          21.7840   69.7366    0.7649 O.3     1  UNL1       -0.3775
     35 O          21.0777   71.6955    2.7764 O.3     1  UNL1       -0.3794
     36 O          23.0261   73.5681    2.1553 O.3     1  UNL1       -0.3794
     37 O          23.2998   72.8050   -0.5458 O.3     1  UNL1       -0.3258
     38 H          22.4591   69.1599    0.3821 H       1  UNL1        0.2106
     39 H          20.7374   70.7921    2.7915 H       1  UNL1        0.2105
     40 H          22.7285   73.3804    3.0550 H       1  UNL1        0.2105
     41 C          22.8155   75.1530   -0.2606 C.3     1  UNL1        0.1693
     42 O          24.2229   75.1586   -0.0150 O.3     1  UNL1       -0.3794
     43 H          24.5179   76.0758   -0.0987 H       1  UNL1        0.2105
@<TRIPOS>BOND
     1    15    16   ar
     2    15    20   ar
     3    15     6    1
     4    16    17   ar
     5    16    21    2
     6    17    18   ar
     7    17    23    1
     8    18    19   ar
     9    18    22    2
    10    19    20   ar
    11     6     7    1
    12     6    11    1
    13     7     8    1
    14     7     9    1
    15     8    13    1
    16     9    10    1
    17     9    12    1
    18    10    11    1
    19    10     5    1
    20    12    14    1
    21     5     4    1
    22     4     1    1
    23     1     2    2
    24     1     3    1
    25     1    24    1
    26    24    25    1
    27    25    26    2
    28    25    27    1
    29    25    28    1
    30    28    29    1
    31    29    30    1
    32    29    37    1
    33    30    31    1
    34    30    34    1
    35    31    32    1
    36    31    35    1
    37    32    33    1
    38    32    36    1
    39    33    41    1
    40    33    37    1
    41    41    42    1
    42    34    38    1
    43    35    39    1
    44    36    40    1
    45    42    43    1
@<TRIPOS>MOLECULE
GDU
 43 45 0 0 0
SMALL
GASTEIGER

@<TRIPOS>ATOM
      1 P          19.9275   71.1087   -2.3410 P.3     1  UNL1        0.2189
      2 O          20.8621   71.0890   -3.4881 O.2     1  UNL1       -0.5170
      3 O          20.0454   72.5213   -1.5771 O.3     1  UNL1       -0.4371
      4 O          18.4222   70.9095   -2.8713 O.3     1  UNL1       -0.3112
      5 C          18.5139   70.2791   -4.1499 C.3     1  UNL1        0.1811
      6 C          18.5715   72.5152   -6.9648 C.3     1  UNL1        0.2383
      7 C          18.3922   71.1079   -7.5895 C.3     1  UNL1        0.1895
      8 O          17.6398   71.1805   -8.8027 O.3     1  UNL1       -0.3779
      9 C          17.5946   70.3627   -6.4878 C.3     1  UNL1        0.1713
     10 C          17.8720   71.1761   -5.2099 C.3     1  UNL1        0.1764
     11 O          18.7751   72.2382   -5.5630 O.3     1  UNL1       -0.3308
     12 O          16.1991   70.3619   -6.7953 O.3     1  UNL1       -0.3794
     13 H          17.5648   70.2765   -9.1388 H       1  UNL1        0.2106
     14 H          16.0972   69.8904   -7.6331 H       1  UNL1        0.2105
     15 N          19.7406   73.1888   -7.5326 N.ar    1  UNL1       -0.2551
     16 C          19.5755   74.2931   -8.2819 C.ar    1  UNL1        0.3323
     17 N          20.6340   74.9333   -8.8126 N.ar    1  UNL1       -0.2743
     18 C          21.8818   74.4693   -8.6083 C.ar    1  UNL1        0.2626
     19 C          22.0705   73.3038   -7.8258 C.ar    1  UNL1        0.0795
     20 C          20.9919   72.6836   -7.3019 C.ar    1  UNL1        0.0869
     21 O          18.4559   74.7239   -8.4745 O.2     1  UNL1       -0.2464
     22 O          22.8402   75.0454   -9.0922 O.2     1  UNL1       -0.2670
     23 H          20.4966   75.7315   -9.3472 H       1  UNL1        0.1734
     24 O          20.3018   69.9175   -1.3245 O.3     1  UNL1       -0.2703
     25 P          21.5856   70.4060   -0.4858 P.3     1  UNL1        0.2208
     26 O          22.2592   69.2324    0.1126 O.2     1  UNL1       -0.5170
     27 O          22.6093   71.1688   -1.4677 O.3     1  UNL1       -0.4371
     28 O          21.1153   71.4091    0.6816 O.3     1  UNL1       -0.2858
     29 C          22.2305   72.2498    0.9804 C.3     1  UNL1        0.2704
     30 C          22.6970   71.9867    2.4131 C.3     1  UNL1        0.1967
     31 C          21.5371   72.2648    3.3741 C.3     1  UNL1        0.1715
     32 C          21.0098   73.6795    3.1093 C.3     1  UNL1        0.1694
     33 C          20.6692   73.8137    1.6230 C.3     1  UNL1        0.1761
     34 O          23.1093   70.6246    2.5396 O.3     1  UNL1       -0.3775
     35 O          21.9975   72.1662    4.7235 O.3     1  UNL1       -0.3794
     36 O          22.0095   74.6362    3.4635 O.3     1  UNL1       -0.3794
     37 O          21.8452   73.6152    0.8398 O.3     1  UNL1       -0.3258
     38 H          23.8340   70.4931    1.9132 H       1  UNL1        0.2106
     39 H          22.3298   71.2673    4.8409 H       1  UNL1        0.2105
     40 H          22.1959   74.5113    4.4032 H       1  UNL1        0.2105
     41 C          20.1092   75.2123    1.3541 C.3     1  UNL1        0.1693
     42 O          21.1846   76.1077    1.0663 O.3     1  UNL1       -0.3794
     43 H          20.7901   76.9753    0.9024 H       1  UNL1        0.2105
@<TRIPOS>BOND
     1    15    16   ar
     2    15    20   ar
     3    15     6    1
     4    16    17   ar
     5    16    21    2
     6    17    18   ar
     7    17    23    1
     8    18    19   ar
     9    18    22    2
    10    19    20   ar
    11     6     7    1
    12     6    11    1
    13     7     8    1
    14     7     9    1
    15     8    13    1
    16     9    10    1
    17     9    12    1
    18    10    11    1
    19    10     5    1
    20    12    14    1
    21     5     4    1
    22     4     1    1
    23     1     2    2
    24     1     3    1
    25     1    24    1
    26    24    25    1
    27    25    26    2
    28    25    27    1
    29    25    28    1
    30    28    29    1
    31    29    30    1
    32    29    37    1
    33    30    31    1
    34    30    34    1
    35    31    32    1
    36    31    35    1
    37    32    33    1
    38    32    36    1
    39    33    41    1
    40    33    37    1
    41    41    42    1
    42    34    38    1
    43    35    39    1
    44    36    40    1
    45    42    43    1
@<TRIPOS>MOLECULE
GDU
 43 45 0 0 0
SMALL
GASTEIGER

@<TRIPOS>ATOM
      1 P          22.3293   72.7213   -4.6870 P.3     1  UNL1        0.2189
      2 O          23.6055   72.5764   -3.9522 O.2     1  UNL1       -0.5170
      3 O          21.6592   74.1398   -4.3239 O.3     1  UNL1       -0.4371
      4 O          22.6094   72.6495   -6.2692 O.3     1  UNL1       -0.3112
      5 C          21.4965   73.2700   -6.9150 C.3     1  UNL1        0.1811
      6 C          18.2340   72.1871   -7.9689 C.3     1  UNL1        0.2383
      7 C          19.1162   72.0551   -9.2367 C.3     1  UNL1        0.1895
      8 O          18.6560   70.9883  -10.0693 O.3     1  UNL1       -0.3779
      9 C          20.5059   71.7252   -8.6325 C.3     1  UNL1        0.1713
     10 C          20.4106   72.2255   -7.1792 C.3     1  UNL1        0.1764
     11 O          19.1112   72.8188   -7.0123 O.3     1  UNL1       -0.3308
     12 O          20.7451   70.3169   -8.6692 O.3     1  UNL1       -0.3794
     13 H          19.2442   70.9599  -10.8368 H       1  UNL1        0.2106
     14 H          20.7346   70.0552   -9.5999 H       1  UNL1        0.2105
     15 N          17.0678   73.0309   -8.2349 N.ar    1  UNL1       -0.2551
     16 C          17.0390   73.8005   -9.3372 C.ar    1  UNL1        0.3323
     17 N          15.9773   74.5827   -9.6069 N.ar    1  UNL1       -0.2743
     18 C          14.9250   74.6143   -8.7667 C.ar    1  UNL1        0.2626
     19 C          14.9439   73.8132   -7.5988 C.ar    1  UNL1        0.0795
     20 C          16.0194   73.0347   -7.3545 C.ar    1  UNL1        0.0869
     21 O          17.9806   73.7822  -10.1047 O.2     1  UNL1       -0.2464
     22 O          13.9656   75.3256   -9.0076 O.2     1  UNL1       -0.2670
     23 H          15.9716   75.1285  -10.4094 H       1  UNL1        0.1734
     24 O          21.3292   71.5328   -4.2632 O.3     1  UNL1       -0.2703
     25 P          21.9539   70.8431   -2.9502 P.3     1  UNL1        0.2208
     26 O          21.3378   69.5127   -2.7516 O.2     1  UNL1       -0.5170
     27 O          23.5446   70.6747   -3.1380 O.3     1  UNL1       -0.4371
     28 O          21.6614   71.7681   -1.6661 O.3     1  UNL1       -0.2858
     29 C          22.7850   71.6354   -0.7945 C.3     1  UNL1        0.2704
     30 C          22.3150   71.1217    0.5674 C.3     1  UNL1        0.1967
     31 C          21.2945   72.1064    1.1466 C.3     1  UNL1        0.1715
     32 C          21.9166   73.5073    1.1571 C.3     1  UNL1        0.1694
     33 C          22.4153   73.8410   -0.2511 C.3     1  UNL1        0.1761
     34 O          21.7082   69.8378    0.4112 O.3     1  UNL1       -0.3775
     35 O          20.9564   71.7186    2.4799 O.3     1  UNL1       -0.3794
     36 O          23.0096   73.5379    2.0760 O.3     1  UNL1       -0.3794
     37 O          23.4179   72.9037   -0.6414 O.3     1  UNL1       -0.3258
     38 H          22.3827   69.2539    0.0384 H       1  UNL1        0.2106
     39 H          20.5813   70.8305    2.4265 H       1  UNL1        0.2105
     40 H          22.6507   73.3169    2.9453 H       1  UNL1        0.2105
     41 C          23.0078   75.2520   -0.2595 C.3     1  UNL1        0.1693
     42 O          22.0799   76.1537   -0.8653 O.3     1  UNL1       -0.3794
     43 H          22.4900   77.0294   -0.8502 H       1  UNL1        0.2105
@<TRIPOS>BOND
     1    15    16   ar
     2    15    20   ar
     3    15     6    1
     4    16    17   ar
     5    16    21    2
     6    17    18   ar
     7    17    23    1
     8    18    19   ar
     9    18    22    2
    10    19    20   ar
    11     6     7    1
    12     6    11    1
    13     7     8    1
    14     7     9    1
    15     8    13    1
    16     9    10    1
    17     9    12    1
    18    10    11    1
    19    10     5    1
    20    12    14    1
    21     5     4    1
    22     4     1    1
    23     1     2    2
    24     1     3    1
    25     1    24    1
    26    24    25    1
    27    25    26    2
    28    25    27    1
    29    25    28    1
    30    28    29    1
    31    29    30    1
    32    29    37    1
    33    30    31    1
    34    30    34    1
    35    31    32    1
    36    31    35    1
    37    32    33    1
    38    32    36    1
    39    33    41    1
    40    33    37    1
    41    41    42    1
    42    34    38    1
    43    35    39    1
    44    36    40    1
    45    42    43    1
