@<TRIPOS>MOLECULE
UD1
 46 48 0 0 0
SMALL
GASTEIGER

@<TRIPOS>ATOM
      1 P          20.9586   71.3513   -2.1637 P.3     1  UNL1        0.2189
      2 O          20.7855   72.8094   -2.3448 O.2     1  UNL1       -0.5170
      3 O          22.4966   70.9561   -2.4301 O.3     1  UNL1       -0.4371
      4 O          20.0155   70.5660   -3.2061 O.3     1  UNL1       -0.3112
      5 C          18.8340   70.1926   -2.4953 C.3     1  UNL1        0.1811
      6 C          17.1211   70.4049   -5.6494 C.3     1  UNL1        0.2383
      7 C          16.9212   68.9367   -5.1971 C.3     1  UNL1        0.1895
      8 O          15.6800   68.4185   -5.6771 O.3     1  UNL1       -0.3779
      9 C          16.9042   69.0713   -3.6522 C.3     1  UNL1        0.1713
     10 C          17.6104   70.4147   -3.3857 C.3     1  UNL1        0.1764
     11 O          18.0210   70.9440   -4.6579 O.3     1  UNL1       -0.3308
     12 O          15.5601   69.1004   -3.1672 O.3     1  UNL1       -0.3794
     13 H          15.6173   67.5059   -5.3630 H       1  UNL1        0.2106
     14 H          15.1550   68.2590   -3.4165 H       1  UNL1        0.2105
     15 N          17.7264   70.4605   -6.9805 N.ar    1  UNL1       -0.2551
     16 C          16.9394   70.4750   -8.0703 C.ar    1  UNL1        0.3323
     17 N          17.4687   70.5298   -9.3069 N.ar    1  UNL1       -0.2743
     18 C          18.8063   70.5620   -9.4726 C.ar    1  UNL1        0.2626
     19 C          19.6468   70.5413   -8.3341 C.ar    1  UNL1        0.0795
     20 C          19.0893   70.4915   -7.1053 C.ar    1  UNL1        0.0869
     21 O          15.7310   70.4465   -7.9371 O.2     1  UNL1       -0.2464
     22 O          19.2861   70.6068  -10.5903 O.2     1  UNL1       -0.2670
     23 H          16.8858   70.5443  -10.0817 H       1  UNL1        0.1734
     24 O          20.5516   70.9451   -0.6609 O.3     1  UNL1       -0.2703
     25 P          21.7100   71.5094    0.3030 P.3     1  UNL1        0.2208
     26 O          22.9045   70.6428    0.1980 O.2     1  UNL1       -0.5170
     27 O          21.1858   71.5173    1.8253 O.3     1  UNL1       -0.4371
     28 O          22.0943   73.0086   -0.1385 O.3     1  UNL1       -0.2865
     29 C          23.4861   73.1777    0.1362 C.3     1  UNL1        0.2611
     30 C          23.6811   74.4162    1.0125 C.3     1  UNL1        0.1582
     31 C          23.1213   75.6413    0.2807 C.3     1  UNL1        0.1625
     32 C          23.7632   75.7179   -1.1086 C.3     1  UNL1        0.1686
     33 C          23.5593   74.3820   -1.8262 C.3     1  UNL1        0.1760
     34 O          23.4306   76.8238    1.0206 O.3     1  UNL1       -0.3801
     35 O          23.1489   76.7652   -1.8618 O.3     1  UNL1       -0.3794
     36 O          24.1953   73.3375   -1.0906 O.3     1  UNL1       -0.3263
     37 H          23.0606   77.5677    0.5257 H       1  UNL1        0.2105
     38 H          23.5812   76.7779   -2.7275 H       1  UNL1        0.2105
     39 C          23.5862   73.6355    3.3181 C.2     1  UNL1        0.2231
     40 C          22.8552   73.4495    4.6232 C.3     1  UNL1        0.0946
     41 N          22.9716   74.2357    2.2807 N.am    1  UNL1       -0.2994
     42 O          24.7279   73.2442    3.2016 O.2     1  UNL1       -0.2751
     43 H          22.0578   74.5488    2.3736 H       1  UNL1        0.1496
     44 C          24.1686   74.4590   -3.2276 C.3     1  UNL1        0.1693
     45 O          24.4226   73.1382   -3.7103 O.3     1  UNL1       -0.3794
     46 H          24.8053   73.2317   -4.5932 H       1  UNL1        0.2105
@<TRIPOS>BOND
     1    29    30    1
     2    29    28    1
     3    29    36    1
     4    30    31    1
     5    30    41    1
     6    31    32    1
     7    31    34    1
     8    32    33    1
     9    32    35    1
    10    33    44    1
    11    33    36    1
    12    44    45    1
    13    39    40    1
    14    39    41   am
    15    39    42    2
    16    41    43    1
    17    28    25    1
    18    34    37    1
    19    35    38    1
    20    45    46    1
    21    15    16   ar
    22    15    20   ar
    23    15     6    1
    24    16    17   ar
    25    16    21    2
    26    17    18   ar
    27    17    23    1
    28    18    19   ar
    29    18    22    2
    30    19    20   ar
    31     6     7    1
    32     6    11    1
    33     7     8    1
    34     7     9    1
    35     8    13    1
    36     9    10    1
    37     9    12    1
    38    10    11    1
    39    10     5    1
    40    12    14    1
    41     5     4    1
    42     4     1    1
    43     1     2    2
    44     1     3    1
    45     1    24    1
    46    24    25    1
    47    25    26    2
    48    25    27    1
@<TRIPOS>MOLECULE
UD1
 46 48 0 0 0
SMALL
GASTEIGER

@<TRIPOS>ATOM
      1 P          20.5285   70.9056   -3.1373 P.3     1  UNL1        0.2189
      2 O          20.3294   72.3304   -3.4825 O.2     1  UNL1       -0.5170
      3 O          20.9490   70.0870   -4.4585 O.3     1  UNL1       -0.4371
      4 O          19.1583   70.3008   -2.5459 O.3     1  UNL1       -0.3112
      5 C          18.1989   71.3589   -2.5595 C.3     1  UNL1        0.1811
      6 C          16.8348   70.4799   -5.7679 C.3     1  UNL1        0.2383
      7 C          17.0846   69.1211   -5.0668 C.3     1  UNL1        0.1895
      8 O          16.1372   68.1427   -5.4961 O.3     1  UNL1       -0.3779
      9 C          16.8704   69.4810   -3.5735 C.3     1  UNL1        0.1713
     10 C          17.0655   71.0087   -3.5249 C.3     1  UNL1        0.1764
     11 O          17.4040   71.4411   -4.8537 O.3     1  UNL1       -0.3308
     12 O          15.5502   69.1252   -3.1575 O.3     1  UNL1       -0.3794
     13 H          16.3469   67.3242   -5.0253 H       1  UNL1        0.2106
     14 H          15.4711   68.1682   -3.2673 H       1  UNL1        0.2105
     15 N          17.5178   70.5303   -7.0611 N.ar    1  UNL1       -0.2551
     16 C          16.7964   70.5430   -8.1955 C.ar    1  UNL1        0.3323
     17 N          17.3978   70.5932   -9.3989 N.ar    1  UNL1       -0.2743
     18 C          18.7430   70.6223   -9.4855 C.ar    1  UNL1        0.2626
     19 C          19.5148   70.6033   -8.2993 C.ar    1  UNL1        0.0795
     20 C          18.8856   70.5583   -7.1054 C.ar    1  UNL1        0.0869
     21 O          15.5823   70.5173   -8.1338 O.2     1  UNL1       -0.2464
     22 O          19.2879   70.6628  -10.5731 O.2     1  UNL1       -0.2670
     23 H          16.8617   70.6065  -10.2067 H       1  UNL1        0.1734
     24 O          21.6917   70.7783   -2.0330 O.3     1  UNL1       -0.2703
     25 P          22.9108   71.7017   -2.5334 P.3     1  UNL1        0.2208
     26 O          22.4578   72.5498   -3.6579 O.2     1  UNL1       -0.5170
     27 O          24.1270   70.7672   -3.0231 O.3     1  UNL1       -0.4371
     28 O          23.4090   72.6376   -1.3225 O.3     1  UNL1       -0.2865
     29 C          22.2513   73.2933   -0.8020 C.3     1  UNL1        0.2611
     30 C          22.5272   74.7940   -0.6926 C.3     1  UNL1        0.1582
     31 C          23.7338   75.0161    0.2262 C.3     1  UNL1        0.1625
     32 C          23.4745   74.3021    1.5570 C.3     1  UNL1        0.1686
     33 C          23.1301   72.8376    1.2780 C.3     1  UNL1        0.1760
     34 O          23.9096   76.4153    0.4560 O.3     1  UNL1       -0.3801
     35 O          24.6453   74.3721    2.3731 O.3     1  UNL1       -0.3794
     36 O          21.9453   72.7634    0.4859 O.3     1  UNL1       -0.3263
     37 H          24.6772   76.5088    1.0368 H       1  UNL1        0.2105
     38 H          24.4389   73.9109    3.1985 H       1  UNL1        0.2105
     39 C          24.0911   75.4596   -2.4377 C.2     1  UNL1        0.2231
     40 C          24.3879   76.0193   -3.8056 C.3     1  UNL1        0.0946
     41 N          22.8160   75.3372   -2.0215 N.am    1  UNL1       -0.2994
     42 O          25.0006   75.1201   -1.7112 O.2     1  UNL1       -0.2751
     43 H          22.0880   75.6091   -2.6026 H       1  UNL1        0.1496
     44 C          22.9009   72.1075    2.6030 C.3     1  UNL1        0.1693
     45 O          21.5169   71.7758    2.7314 O.3     1  UNL1       -0.3794
     46 H          21.4160   71.3187    3.5773 H       1  UNL1        0.2105
@<TRIPOS>BOND
     1    29    30    1
     2    29    28    1
     3    29    36    1
     4    30    31    1
     5    30    41    1
     6    31    32    1
     7    31    34    1
     8    32    33    1
     9    32    35    1
    10    33    44    1
    11    33    36    1
    12    44    45    1
    13    39    40    1
    14    39    41   am
    15    39    42    2
    16    41    43    1
    17    28    25    1
    18    34    37    1
    19    35    38    1
    20    45    46    1
    21    15    16   ar
    22    15    20   ar
    23    15     6    1
    24    16    17   ar
    25    16    21    2
    26    17    18   ar
    27    17    23    1
    28    18    19   ar
    29    18    22    2
    30    19    20   ar
    31     6     7    1
    32     6    11    1
    33     7     8    1
    34     7     9    1
    35     8    13    1
    36     9    10    1
    37     9    12    1
    38    10    11    1
    39    10     5    1
    40    12    14    1
    41     5     4    1
    42     4     1    1
    43     1     2    2
    44     1     3    1
    45     1    24    1
    46    24    25    1
    47    25    26    2
    48    25    27    1
@<TRIPOS>MOLECULE
UD1
 46 48 0 0 0
SMALL
GASTEIGER

@<TRIPOS>ATOM
      1 P          22.5387   71.5585   -2.8298 P.3     1  UNL1        0.2189
      2 O          23.9248   71.4530   -3.3361 O.2     1  UNL1       -0.5170
      3 O          21.9949   73.0561   -3.0623 O.3     1  UNL1       -0.4371
      4 O          22.5155   71.2185   -1.2561 O.3     1  UNL1       -0.3112
      5 C          21.8698   72.3139   -0.6054 C.3     1  UNL1        0.1811
      6 C          23.6351   72.2379    2.5259 C.3     1  UNL1        0.2383
      7 C          23.1178   73.6934    2.4072 C.3     1  UNL1        0.1895
      8 O          22.8549   74.2492    3.6961 O.3     1  UNL1       -0.3779
      9 C          21.8029   73.5073    1.6062 C.3     1  UNL1        0.1713
     10 C          21.9780   72.1435    0.9107 C.3     1  UNL1        0.1764
     11 O          23.2838   71.6501    1.2552 O.3     1  UNL1       -0.3308
     12 O          20.6785   73.4856    2.4883 O.3     1  UNL1       -0.3794
     13 H          22.5381   75.1517    3.5527 H       1  UNL1        0.2106
     14 H          20.6583   74.3418    2.9361 H       1  UNL1        0.2105
     15 N          25.0852   72.2164    2.7213 N.ar    1  UNL1       -0.2551
     16 C          25.7543   71.0550    2.6176 C.ar    1  UNL1        0.3323
     17 N          27.0888   71.0062    2.7884 N.ar    1  UNL1       -0.2743
     18 C          27.7783   72.1283    3.0774 C.ar    1  UNL1        0.2626
     19 C          27.0856   73.3568    3.1953 C.ar    1  UNL1        0.0795
     20 C          25.7477   73.3781    3.0137 C.ar    1  UNL1        0.0869
     21 O          25.1465   70.0345    2.3574 O.2     1  UNL1       -0.2464
     22 O          28.9841   72.0845    3.2367 O.2     1  UNL1       -0.2670
     23 H          27.5559   70.1606    2.7053 H       1  UNL1        0.1734
     24 O          21.5988   70.5169   -3.6176 O.3     1  UNL1       -0.2703
     25 P          20.0879   71.0504   -3.4698 P.3     1  UNL1        0.2208
     26 O          20.0874   72.5297   -3.4451 O.2     1  UNL1       -0.5170
     27 O          19.4522   70.4914   -2.1003 O.3     1  UNL1       -0.4371
     28 O          19.2108   70.5343   -4.7167 O.3     1  UNL1       -0.2865
     29 C          18.5579   71.6799   -5.2666 C.3     1  UNL1        0.2611
     30 C          17.0821   71.3547   -5.5041 C.3     1  UNL1        0.1582
     31 C          16.9795   70.1619   -6.4613 C.3     1  UNL1        0.1625
     32 C          17.7894   70.4755   -7.7238 C.3     1  UNL1        0.1686
     33 C          19.2129   70.8642   -7.3189 C.3     1  UNL1        0.1760
     34 O          15.6109   69.9429   -6.8084 O.3     1  UNL1       -0.3801
     35 O          17.8286   69.3215   -8.5654 O.3     1  UNL1       -0.3794
     36 O          19.1793   72.0328   -6.5006 O.3     1  UNL1       -0.3263
     37 H          15.5929   69.1857   -7.4098 H       1  UNL1        0.2105
     38 H          18.3475   69.5620   -9.3460 H       1  UNL1        0.2105
     39 C          16.3981   69.7366   -3.8164 C.2     1  UNL1        0.2231
     40 C          15.7402   69.3902   -2.5051 C.3     1  UNL1        0.0946
     41 N          16.4436   71.0177   -4.2301 N.am    1  UNL1       -0.2994
     42 O          16.8860   68.8619   -4.4997 O.2     1  UNL1       -0.2751
     43 H          16.0530   71.7179   -3.6836 H       1  UNL1        0.1496
     44 C          20.0394   71.1480   -8.5749 C.3     1  UNL1        0.1693
     45 O          20.9071   72.2576   -8.3339 O.3     1  UNL1       -0.3794
     46 H          21.4082   72.4028   -9.1478 H       1  UNL1        0.2105
@<TRIPOS>BOND
     1    29    30    1
     2    29    28    1
     3    29    36    1
     4    30    31    1
     5    30    41    1
     6    31    32    1
     7    31    34    1
     8    32    33    1
     9    32    35    1
    10    33    44    1
    11    33    36    1
    12    44    45    1
    13    39    40    1
    14    39    41   am
    15    39    42    2
    16    41    43    1
    17    28    25    1
    18    34    37    1
    19    35    38    1
    20    45    46    1
    21    15    16   ar
    22    15    20   ar
    23    15     6    1
    24    16    17   ar
    25    16    21    2
    26    17    18   ar
    27    17    23    1
    28    18    19   ar
    29    18    22    2
    30    19    20   ar
    31     6     7    1
    32     6    11    1
    33     7     8    1
    34     7     9    1
    35     8    13    1
    36     9    10    1
    37     9    12    1
    38    10    11    1
    39    10     5    1
    40    12    14    1
    41     5     4    1
    42     4     1    1
    43     1     2    2
    44     1     3    1
    45     1    24    1
    46    24    25    1
    47    25    26    2
    48    25    27    1
@<TRIPOS>MOLECULE
UD1
 46 48 0 0 0
SMALL
GASTEIGER

@<TRIPOS>ATOM
      1 P          20.8344   71.2724   -2.0713 P.3     1  UNL1        0.2189
      2 O          21.2898   70.3347   -3.1211 O.2     1  UNL1       -0.5170
      3 O          21.1044   70.6268   -0.6212 O.3     1  UNL1       -0.4371
      4 O          19.2584   71.5511   -2.2485 O.3     1  UNL1       -0.3112
      5 C          18.6425   70.2903   -2.5156 C.3     1  UNL1        0.1811
      6 C          17.0427   70.4411   -5.7319 C.3     1  UNL1        0.2383
      7 C          16.8316   68.9801   -5.2615 C.3     1  UNL1        0.1895
      8 O          15.6102   68.4488   -5.7763 O.3     1  UNL1       -0.3779
      9 C          16.7590   69.1414   -3.7208 C.3     1  UNL1        0.1713
     10 C          17.4508   70.4920   -3.4527 C.3     1  UNL1        0.1764
     11 O          17.9049   71.0008   -4.7185 O.3     1  UNL1       -0.3308
     12 O          15.3983   69.1737   -3.2846 O.3     1  UNL1       -0.3794
     13 H          15.5393   67.5415   -5.4488 H       1  UNL1        0.2106
     14 H          15.0052   68.3265   -3.5334 H       1  UNL1        0.2105
     15 N          17.6951   70.4760   -7.0414 N.ar    1  UNL1       -0.2551
     16 C          16.9472   70.4802   -8.1585 C.ar    1  UNL1        0.3323
     17 N          17.5201   70.5160   -9.3761 N.ar    1  UNL1       -0.2743
     18 C          18.8630   70.5390   -9.4948 C.ar    1  UNL1        0.2626
     19 C          19.6625   70.5288   -8.3270 C.ar    1  UNL1        0.0795
     20 C          19.0616   70.4982   -7.1182 C.ar    1  UNL1        0.0869
     21 O          15.7347   70.4598   -8.0679 O.2     1  UNL1       -0.2464
     22 O          19.3822   70.5665  -10.5952 O.2     1  UNL1       -0.2670
     23 H          16.9652   70.5233  -10.1712 H       1  UNL1        0.1734
     24 O          21.6422   72.6577   -2.2020 O.3     1  UNL1       -0.2703
     25 P          23.0257   72.4663   -1.4030 P.3     1  UNL1        0.2208
     26 O          23.9139   73.6186   -1.6716 O.2     1  UNL1       -0.5170
     27 O          23.7446   71.1106   -1.8904 O.3     1  UNL1       -0.4371
     28 O          22.7270   72.3758    0.1760 O.3     1  UNL1       -0.2865
     29 C          22.8175   73.7050    0.6918 C.3     1  UNL1        0.2611
     30 C          23.3358   73.6544    2.1301 C.3     1  UNL1        0.1582
     31 C          22.3791   72.8088    2.9782 C.3     1  UNL1        0.1625
     32 C          20.9599   73.3632    2.8158 C.3     1  UNL1        0.1686
     33 C          20.6196   73.4329    1.3256 C.3     1  UNL1        0.1760
     34 O          22.7690   72.8766    4.3511 O.3     1  UNL1       -0.3801
     35 O          20.0319   72.5031    3.4796 O.3     1  UNL1       -0.3794
     36 O          21.5278   74.3129    0.6643 O.3     1  UNL1       -0.3263
     37 H          22.1422   72.3319    4.8468 H       1  UNL1        0.2105
     38 H          19.1532   72.8879    3.3519 H       1  UNL1        0.2105
     39 C          24.8125   71.7333    2.3817 C.2     1  UNL1        0.2231
     40 C          26.1867   71.1142    2.4015 C.3     1  UNL1        0.0946
     41 N          24.6706   73.0524    2.1489 N.am    1  UNL1       -0.2994
     42 O          23.8341   71.0440    2.5761 O.2     1  UNL1       -0.2751
     43 H          25.4534   73.6043    1.9935 H       1  UNL1        0.1496
     44 C          19.1916   73.9550    1.1537 C.3     1  UNL1        0.1693
     45 O          18.6580   73.4846   -0.0857 O.3     1  UNL1       -0.3794
     46 H          17.7598   73.8355   -0.1548 H       1  UNL1        0.2105
@<TRIPOS>BOND
     1    29    30    1
     2    29    28    1
     3    29    36    1
     4    30    31    1
     5    30    41    1
     6    31    32    1
     7    31    34    1
     8    32    33    1
     9    32    35    1
    10    33    44    1
    11    33    36    1
    12    44    45    1
    13    39    40    1
    14    39    41   am
    15    39    42    2
    16    41    43    1
    17    28    25    1
    18    34    37    1
    19    35    38    1
    20    45    46    1
    21    15    16   ar
    22    15    20   ar
    23    15     6    1
    24    16    17   ar
    25    16    21    2
    26    17    18   ar
    27    17    23    1
    28    18    19   ar
    29    18    22    2
    30    19    20   ar
    31     6     7    1
    32     6    11    1
    33     7     8    1
    34     7     9    1
    35     8    13    1
    36     9    10    1
    37     9    12    1
    38    10    11    1
    39    10     5    1
    40    12    14    1
    41     5     4    1
    42     4     1    1
    43     1     2    2
    44     1     3    1
    45     1    24    1
    46    24    25    1
    47    25    26    2
    48    25    27    1
@<TRIPOS>MOLECULE
UD1
 46 48 0 0 0
SMALL
GASTEIGER

@<TRIPOS>ATOM
      1 P          21.4399   71.2563   -0.2515 P.3     1  UNL1        0.2189
      2 O          21.2601   72.7242   -0.2077 O.2     1  UNL1       -0.5170
      3 O          20.0700   70.5621   -0.7355 O.3     1  UNL1       -0.4371
      4 O          21.8229   70.7191    1.2173 O.3     1  UNL1       -0.3112
      5 C          22.6450   71.7183    1.8222 C.3     1  UNL1        0.1811
      6 C          22.7186   73.3807    5.0094 C.3     1  UNL1        0.2383
      7 C          21.8072   74.2711    4.1281 C.3     1  UNL1        0.1895
      8 O          20.8128   74.9243    4.9179 O.3     1  UNL1       -0.3779
      9 C          21.1620   73.2328    3.1738 C.3     1  UNL1        0.1713
     10 C          22.1226   72.0291    3.2256 C.3     1  UNL1        0.1764
     11 O          23.2168   72.3893    4.0860 O.3     1  UNL1       -0.3308
     12 O          19.8623   72.8644    3.6403 O.3     1  UNL1       -0.3794
     13 H          20.2819   75.4604    4.3127 H       1  UNL1        0.2106
     14 H          19.3273   73.6693    3.6412 H       1  UNL1        0.2105
     15 N          23.8207   74.1618    5.5721 N.ar    1  UNL1       -0.2551
     16 C          23.9203   74.3096    6.9046 C.ar    1  UNL1        0.3323
     17 N          24.9257   75.0194    7.4501 N.ar    1  UNL1       -0.2743
     18 C          25.8497   75.6050    6.6619 C.ar    1  UNL1        0.2626
     19 C          25.7534   75.4625    5.2572 C.ar    1  UNL1        0.0795
     20 C          24.7378   74.7406    4.7368 C.ar    1  UNL1        0.0869
     21 O          23.0946   73.7874    7.6287 O.2     1  UNL1       -0.2464
     22 O          26.7564   76.2510    7.1538 O.2     1  UNL1       -0.2670
     23 H          24.9847   75.1116    8.4135 H       1  UNL1        0.1734
     24 O          22.6209   70.8907   -1.2813 O.3     1  UNL1       -0.2703
     25 P          22.4115   71.8204   -2.5779 P.3     1  UNL1        0.2208
     26 O          23.3916   71.4420   -3.6195 O.2     1  UNL1       -0.5170
     27 O          22.6283   73.3636   -2.1734 O.3     1  UNL1       -0.4371
     28 O          20.9193   71.6210   -3.1474 O.3     1  UNL1       -0.2865
     29 C          21.0148   70.7229   -4.2545 C.3     1  UNL1        0.2611
     30 C          20.5256   71.4282   -5.5206 C.3     1  UNL1        0.1582
     31 C          19.0756   71.8803   -5.3141 C.3     1  UNL1        0.1625
     32 C          18.2423   70.6704   -4.8784 C.3     1  UNL1        0.1686
     33 C          18.9023   70.0240   -3.6586 C.3     1  UNL1        0.1760
     34 O          18.5589   72.4060   -6.5381 O.3     1  UNL1       -0.3801
     35 O          16.9215   71.0970   -4.5390 O.3     1  UNL1       -0.3794
     36 O          20.2116   69.5721   -4.0017 O.3     1  UNL1       -0.3263
     37 H          17.6475   72.6777   -6.3628 H       1  UNL1        0.2105
     38 H          16.4325   70.3063   -4.2703 H       1  UNL1        0.2105
     39 C          21.7289   72.8906   -7.0528 C.2     1  UNL1        0.2231
     40 C          22.5981   74.0909   -7.3285 C.3     1  UNL1        0.0946
     41 N          21.3696   72.5944   -5.7890 N.am    1  UNL1       -0.2994
     42 O          21.3534   72.1908   -7.9690 O.2     1  UNL1       -0.2751
     43 H          21.6701   73.1542   -5.0556 H       1  UNL1        0.1496
     44 C          18.0599   68.8335   -3.1955 C.3     1  UNL1        0.1693
     45 O          17.2040   68.4125   -4.2595 O.3     1  UNL1       -0.3794
     46 H          16.6920   67.6630   -3.9269 H       1  UNL1        0.2105
@<TRIPOS>BOND
     1    29    30    1
     2    29    28    1
     3    29    36    1
     4    30    31    1
     5    30    41    1
     6    31    32    1
     7    31    34    1
     8    32    33    1
     9    32    35    1
    10    33    44    1
    11    33    36    1
    12    44    45    1
    13    39    40    1
    14    39    41   am
    15    39    42    2
    16    41    43    1
    17    28    25    1
    18    34    37    1
    19    35    38    1
    20    45    46    1
    21    15    16   ar
    22    15    20   ar
    23    15     6    1
    24    16    17   ar
    25    16    21    2
    26    17    18   ar
    27    17    23    1
    28    18    19   ar
    29    18    22    2
    30    19    20   ar
    31     6     7    1
    32     6    11    1
    33     7     8    1
    34     7     9    1
    35     8    13    1
    36     9    10    1
    37     9    12    1
    38    10    11    1
    39    10     5    1
    40    12    14    1
    41     5     4    1
    42     4     1    1
    43     1     2    2
    44     1     3    1
    45     1    24    1
    46    24    25    1
    47    25    26    2
    48    25    27    1
@<TRIPOS>MOLECULE
UD1
 46 48 0 0 0
SMALL
GASTEIGER

@<TRIPOS>ATOM
      1 P          21.0491   71.0557   -3.4605 P.3     1  UNL1        0.2189
      2 O          21.4729   72.0014   -4.5163 O.2     1  UNL1       -0.5170
      3 O          20.7669   69.6119   -4.1149 O.3     1  UNL1       -0.4371
      4 O          19.7038   71.5995   -2.7623 O.3     1  UNL1       -0.3112
      5 C          18.8575   70.4673   -2.5566 C.3     1  UNL1        0.1811
      6 C          17.1000   70.4614   -5.6932 C.3     1  UNL1        0.2383
      7 C          16.9773   69.0059   -5.1768 C.3     1  UNL1        0.1895
      8 O          15.7576   68.4083   -5.6175 O.3     1  UNL1       -0.3779
      9 C          16.9717   69.2055   -3.6388 C.3     1  UNL1        0.1713
     10 C          17.6143   70.5916   -3.4388 C.3     1  UNL1        0.1764
     11 O          17.9839   71.0853   -4.7376 O.3     1  UNL1       -0.3308
     12 O          15.6334   69.1903   -3.1372 O.3     1  UNL1       -0.3794
     13 H          15.7432   67.5079   -5.2644 H       1  UNL1        0.2106
     14 H          15.2671   68.3204   -3.3453 H       1  UNL1        0.2105
     15 N          17.6865   70.4893   -7.0336 N.ar    1  UNL1       -0.2551
     16 C          16.8842   70.4796   -8.1123 C.ar    1  UNL1        0.3323
     17 N          17.3960   70.5086   -9.3571 N.ar    1  UNL1       -0.2743
     18 C          18.7312   70.5387   -9.5423 C.ar    1  UNL1        0.2626
     19 C          19.5875   70.5433   -8.4155 C.ar    1  UNL1        0.0795
     20 C          19.0474   70.5191   -7.1782 C.ar    1  UNL1        0.0869
     21 O          15.6779   70.4526   -7.9615 O.2     1  UNL1       -0.2464
     22 O          19.1951   70.5601  -10.6673 O.2     1  UNL1       -0.2670
     23 H          16.8023   70.5059  -10.1237 H       1  UNL1        0.1734
     24 O          22.2123   70.9275   -2.3563 O.3     1  UNL1       -0.2703
     25 P          22.6577   72.4258   -1.9741 P.3     1  UNL1        0.2208
     26 O          21.5628   73.3648   -2.3030 O.2     1  UNL1       -0.5170
     27 O          23.9748   72.8246   -2.8099 O.3     1  UNL1       -0.4371
     28 O          22.9787   72.5063   -0.3990 O.3     1  UNL1       -0.2865
     29 C          22.7276   71.2081    0.1420 C.3     1  UNL1        0.2611
     30 C          21.5708   71.2917    1.1394 C.3     1  UNL1        0.1582
     31 C          21.9387   72.2797    2.2521 C.3     1  UNL1        0.1625
     32 C          23.2868   71.8642    2.8505 C.3     1  UNL1        0.1686
     33 C          24.3151   71.7404    1.7241 C.3     1  UNL1        0.1760
     34 O          20.9328   72.2549    3.2664 O.3     1  UNL1       -0.3801
     35 O          23.7189   72.8527    3.7874 O.3     1  UNL1       -0.3794
     36 O          23.9001   70.7344    0.8009 O.3     1  UNL1       -0.3263
     37 H          21.2037   72.8894    3.9442 H       1  UNL1        0.2105
     38 H          24.5693   72.5526    4.1385 H       1  UNL1        0.2105
     39 C          20.0250   73.0577    0.4868 C.2     1  UNL1        0.2231
     40 C          18.7819   73.5335   -0.2207 C.3     1  UNL1        0.0946
     41 N          20.3635   71.7545    0.4519 N.am    1  UNL1       -0.2994
     42 O          20.7204   73.8482    1.0883 O.2     1  UNL1       -0.2751
     43 H          19.8071   71.1217   -0.0293 H       1  UNL1        0.1496
     44 C          25.6734   71.3572    2.3151 C.3     1  UNL1        0.1693
     45 O          26.3639   72.5383    2.7280 O.3     1  UNL1       -0.3794
     46 H          27.2125   72.2531    3.0931 H       1  UNL1        0.2105
@<TRIPOS>BOND
     1    29    30    1
     2    29    28    1
     3    29    36    1
     4    30    31    1
     5    30    41    1
     6    31    32    1
     7    31    34    1
     8    32    33    1
     9    32    35    1
    10    33    44    1
    11    33    36    1
    12    44    45    1
    13    39    40    1
    14    39    41   am
    15    39    42    2
    16    41    43    1
    17    28    25    1
    18    34    37    1
    19    35    38    1
    20    45    46    1
    21    15    16   ar
    22    15    20   ar
    23    15     6    1
    24    16    17   ar
    25    16    21    2
    26    17    18   ar
    27    17    23    1
    28    18    19   ar
    29    18    22    2
    30    19    20   ar
    31     6     7    1
    32     6    11    1
    33     7     8    1
    34     7     9    1
    35     8    13    1
    36     9    10    1
    37     9    12    1
    38    10    11    1
    39    10     5    1
    40    12    14    1
    41     5     4    1
    42     4     1    1
    43     1     2    2
    44     1     3    1
    45     1    24    1
    46    24    25    1
    47    25    26    2
    48    25    27    1
@<TRIPOS>MOLECULE
UD1
 46 48 0 0 0
SMALL
GASTEIGER

@<TRIPOS>ATOM
      1 P          21.7180   72.4438   -1.8722 P.3     1  UNL1        0.2189
      2 O          20.3241   72.9102   -1.7037 O.2     1  UNL1       -0.5170
      3 O          22.5794   73.5838   -2.6146 O.3     1  UNL1       -0.4371
      4 O          21.7301   71.1002   -2.7596 O.3     1  UNL1       -0.3112
      5 C          21.3488   71.4755   -4.0840 C.3     1  UNL1        0.1811
      6 C          18.1370   69.8605   -4.1464 C.3     1  UNL1        0.2383
      7 C          18.0035   71.0293   -5.1546 C.3     1  UNL1        0.1895
      8 O          17.0909   70.6989   -6.2021 O.3     1  UNL1       -0.3779
      9 C          19.4497   71.1556   -5.7000 C.3     1  UNL1        0.1713
     10 C          20.3175   70.4812   -4.6199 C.3     1  UNL1        0.1764
     11 O          19.4391   70.0684   -3.5591 O.3     1  UNL1       -0.3308
     12 O          19.5747   70.4731   -6.9495 O.3     1  UNL1       -0.3794
     13 H          17.0528   71.4643   -6.7922 H       1  UNL1        0.2106
     14 H          18.9654   70.9027   -7.5645 H       1  UNL1        0.2105
     15 N          17.0922   69.9341   -3.1245 N.ar    1  UNL1       -0.2551
     16 C          16.9226   68.9102   -2.2700 C.ar    1  UNL1        0.3323
     17 N          15.9721   68.9523   -1.3176 N.ar    1  UNL1       -0.2743
     18 C          15.1637   70.0262   -1.2114 C.ar    1  UNL1        0.2626
     19 C          15.3274   71.1086   -2.1083 C.ar    1  UNL1        0.0795
     20 C          16.2922   71.0425   -3.0507 C.ar    1  UNL1        0.0869
     21 O          17.6439   67.9348   -2.3530 O.2     1  UNL1       -0.2464
     22 O          14.3009   70.0633   -0.3538 O.2     1  UNL1       -0.2670
     23 H          15.8670   68.2068   -0.7066 H       1  UNL1        0.1734
     24 O          22.3602   72.1391   -0.4288 O.3     1  UNL1       -0.2703
     25 P          21.2913   71.2455    0.3764 P.3     1  UNL1        0.2208
     26 O          21.9753   70.0777    0.9739 O.2     1  UNL1       -0.5170
     27 O          20.1464   70.7364   -0.6347 O.3     1  UNL1       -0.4371
     28 O          20.6210   72.1294    1.5426 O.3     1  UNL1       -0.2865
     29 C          21.3943   73.3257    1.6524 C.3     1  UNL1        0.2611
     30 C          22.2892   73.2367    2.8899 C.3     1  UNL1        0.1582
     31 C          21.4105   73.0446    4.1311 C.3     1  UNL1        0.1625
     32 C          20.3596   74.1593    4.1650 C.3     1  UNL1        0.1686
     33 C          19.6082   74.1766    2.8323 C.3     1  UNL1        0.1760
     34 O          22.2207   73.1097    5.3061 O.3     1  UNL1       -0.3801
     35 O          19.4396   73.9165    5.2309 O.3     1  UNL1       -0.3794
     36 O          20.5200   74.4462    1.7681 O.3     1  UNL1       -0.3263
     37 H          21.6291   72.9839    6.0607 H       1  UNL1        0.2105
     38 H          18.7966   74.6396    5.2156 H       1  UNL1        0.2105
     39 C          24.5039   72.3085    2.4806 C.2     1  UNL1        0.2231
     40 C          25.4427   71.1375    2.3402 C.3     1  UNL1        0.0946
     41 N          23.2017   72.0995    2.7539 N.am    1  UNL1       -0.2994
     42 O          24.9208   73.4392    2.3467 O.2     1  UNL1       -0.2751
     43 H          22.8678   71.1948    2.8609 H       1  UNL1        0.1496
     44 C          18.5340   75.2656    2.8679 C.3     1  UNL1        0.1693
     45 O          19.1215   76.5257    2.5375 O.3     1  UNL1       -0.3794
     46 H          18.4128   77.1824    2.5717 H       1  UNL1        0.2105
@<TRIPOS>BOND
     1    29    30    1
     2    29    28    1
     3    29    36    1
     4    30    31    1
     5    30    41    1
     6    31    32    1
     7    31    34    1
     8    32    33    1
     9    32    35    1
    10    33    44    1
    11    33    36    1
    12    44    45    1
    13    39    40    1
    14    39    41   am
    15    39    42    2
    16    41    43    1
    17    28    25    1
    18    34    37    1
    19    35    38    1
    20    45    46    1
    21    15    16   ar
    22    15    20   ar
    23    15     6    1
    24    16    17   ar
    25    16    21    2
    26    17    18   ar
    27    17    23    1
    28    18    19   ar
    29    18    22    2
    30    19    20   ar
    31     6     7    1
    32     6    11    1
    33     7     8    1
    34     7     9    1
    35     8    13    1
    36     9    10    1
    37     9    12    1
    38    10    11    1
    39    10     5    1
    40    12    14    1
    41     5     4    1
    42     4     1    1
    43     1     2    2
    44     1     3    1
    45     1    24    1
    46    24    25    1
    47    25    26    2
    48    25    27    1
@<TRIPOS>MOLECULE
UD1
 46 48 0 0 0
SMALL
GASTEIGER

@<TRIPOS>ATOM
      1 P          16.2204   69.6930   -2.7076 P.3     1  UNL1        0.2189
      2 O          15.9290   69.2214   -4.0793 O.2     1  UNL1       -0.5170
      3 O          16.9442   68.5179   -1.8784 O.3     1  UNL1       -0.4371
      4 O          14.8440   70.0959   -1.9755 O.3     1  UNL1       -0.3112
      5 C          14.7425   69.2803   -0.8072 C.3     1  UNL1        0.1811
      6 C          12.0379   68.0337    1.2073 C.3     1  UNL1        0.2383
      7 C          12.2555   69.4848    1.7045 C.3     1  UNL1        0.1895
      8 O          11.0307   70.0560    2.1659 O.3     1  UNL1       -0.3779
      9 C          12.7496   70.1986    0.4195 C.3     1  UNL1        0.1713
     10 C          13.2683   69.0521   -0.4698 C.3     1  UNL1        0.1764
     11 O          13.1203   67.8307    0.2742 O.3     1  UNL1       -0.3308
     12 O          11.6703   70.8856   -0.2177 O.3     1  UNL1       -0.3794
     13 H          11.2341   70.9546    2.4604 H       1  UNL1        0.2106
     14 H          11.3514   71.5478    0.4100 H       1  UNL1        0.2105
     15 N          12.1290   67.0850    2.3178 N.ar    1  UNL1       -0.2551
     16 C          13.3333   66.6404    2.7172 C.ar    1  UNL1        0.3323
     17 N          13.4473   65.7706    3.7383 N.ar    1  UNL1       -0.2743
     18 C          12.3466   65.3217    4.3746 C.ar    1  UNL1        0.2626
     19 C          11.0722   65.7769    3.9605 C.ar    1  UNL1        0.0795
     20 C          10.9870   66.6535    2.9369 C.ar    1  UNL1        0.0869
     21 O          14.3353   67.0362    2.1533 O.2     1  UNL1       -0.2464
     22 O          12.4482   64.5316    5.2948 O.2     1  UNL1       -0.2670
     23 H          14.3242   65.4642    4.0163 H       1  UNL1        0.1734
     24 O          17.1875   70.9771   -2.7758 O.3     1  UNL1       -0.2703
     25 P          18.6774   70.4242   -3.0284 P.3     1  UNL1        0.2208
     26 O          18.6093   69.0305   -3.5202 O.2     1  UNL1       -0.5170
     27 O          19.5071   70.4659   -1.6493 O.3     1  UNL1       -0.4371
     28 O          19.4141   71.3444   -4.1243 O.3     1  UNL1       -0.2865
     29 C          20.5069   70.5816   -4.6390 C.3     1  UNL1        0.2611
     30 C          21.8035   71.3736   -4.4616 C.3     1  UNL1        0.1582
     31 C          21.6800   72.7098   -5.2024 C.3     1  UNL1        0.1625
     32 C          21.2805   72.4298   -6.6550 C.3     1  UNL1        0.1686
     33 C          20.0214   71.5606   -6.6669 C.3     1  UNL1        0.1760
     34 O          22.9346   73.3928   -5.1704 O.3     1  UNL1       -0.3801
     35 O          21.0171   73.6643   -7.3246 O.3     1  UNL1       -0.3794
     36 O          20.2889   70.3155   -6.0229 O.3     1  UNL1       -0.3263
     37 H          22.8115   74.2257   -5.6462 H       1  UNL1        0.2105
     38 H          20.7691   73.4422   -8.2333 H       1  UNL1        0.2105
     39 C          23.2451   71.3790   -2.4979 C.2     1  UNL1        0.2231
     40 C          23.4827   71.6343   -1.0314 C.3     1  UNL1        0.0946
     41 N          22.0350   71.6219   -3.0371 N.am    1  UNL1       -0.2994
     42 O          24.1435   70.9541   -3.1927 O.2     1  UNL1       -0.2751
     43 H          21.3158   71.9616   -2.4813 H       1  UNL1        0.1496
     44 C          19.5952   71.3021   -8.1135 C.3     1  UNL1        0.1693
     45 O          20.6678   71.6419   -8.9944 O.3     1  UNL1       -0.3794
     46 H          20.3586   71.4650   -9.8932 H       1  UNL1        0.2105
@<TRIPOS>BOND
     1    29    30    1
     2    29    28    1
     3    29    36    1
     4    30    31    1
     5    30    41    1
     6    31    32    1
     7    31    34    1
     8    32    33    1
     9    32    35    1
    10    33    44    1
    11    33    36    1
    12    44    45    1
    13    39    40    1
    14    39    41   am
    15    39    42    2
    16    41    43    1
    17    28    25    1
    18    34    37    1
    19    35    38    1
    20    45    46    1
    21    15    16   ar
    22    15    20   ar
    23    15     6    1
    24    16    17   ar
    25    16    21    2
    26    17    18   ar
    27    17    23    1
    28    18    19   ar
    29    18    22    2
    30    19    20   ar
    31     6     7    1
    32     6    11    1
    33     7     8    1
    34     7     9    1
    35     8    13    1
    36     9    10    1
    37     9    12    1
    38    10    11    1
    39    10     5    1
    40    12    14    1
    41     5     4    1
    42     4     1    1
    43     1     2    2
    44     1     3    1
    45     1    24    1
    46    24    25    1
    47    25    26    2
    48    25    27    1
@<TRIPOS>MOLECULE
UD1
 46 48 0 0 0
SMALL
GASTEIGER

@<TRIPOS>ATOM
      1 P          20.4332   71.0013   -2.0406 P.3     1  UNL1        0.2189
      2 O          20.5170   70.6375   -0.6090 O.2     1  UNL1       -0.5170
      3 O          20.4023   72.6046   -2.1861 O.3     1  UNL1       -0.4371
      4 O          19.0895   70.3799   -2.6738 O.3     1  UNL1       -0.3112
      5 C          18.0736   71.3763   -2.5483 C.3     1  UNL1        0.1811
      6 C          16.7592   70.5799   -5.7987 C.3     1  UNL1        0.2383
      7 C          16.9125   69.2081   -5.0953 C.3     1  UNL1        0.1895
      8 O          15.9256   68.2845   -5.5558 O.3     1  UNL1       -0.3779
      9 C          16.6741   69.5766   -3.6078 C.3     1  UNL1        0.1713
     10 C          16.9519   71.0911   -3.5481 C.3     1  UNL1        0.1764
     11 O          17.3532   71.5065   -4.8648 O.3     1  UNL1       -0.3308
     12 O          15.3244   69.2938   -3.2323 O.3     1  UNL1       -0.3794
     13 H          16.0756   67.4548   -5.0819 H       1  UNL1        0.2106
     14 H          15.1958   68.3428   -3.3477 H       1  UNL1        0.2105
     15 N          17.4822   70.5948   -7.0710 N.ar    1  UNL1       -0.2551
     16 C          16.7962   70.5896   -8.2272 C.ar    1  UNL1        0.3323
     17 N          17.4349   70.6070   -9.4121 N.ar    1  UNL1       -0.2743
     18 C          18.7824   70.6207   -9.4576 C.ar    1  UNL1        0.2626
     19 C          19.5170   70.6203   -8.2480 C.ar    1  UNL1        0.0795
     20 C          18.8510   70.6081   -7.0734 C.ar    1  UNL1        0.0869
     21 O          15.5806   70.5774   -8.2026 O.2     1  UNL1       -0.2464
     22 O          19.3609   70.6315  -10.5284 O.2     1  UNL1       -0.2670
     23 H          16.9241   70.6077  -10.2363 H       1  UNL1        0.1734
     24 O          21.7137   70.4155   -2.8190 O.3     1  UNL1       -0.2703
     25 P          22.9709   71.3274   -2.3982 P.3     1  UNL1        0.2208
     26 O          24.2027   70.7817   -3.0096 O.2     1  UNL1       -0.5170
     27 O          23.1226   71.3269   -0.7953 O.3     1  UNL1       -0.4371
     28 O          22.7386   72.8345   -2.9132 O.3     1  UNL1       -0.2865
     29 C          23.9495   73.2464   -3.5497 C.3     1  UNL1        0.2611
     30 C          24.2322   74.7084   -3.1995 C.3     1  UNL1        0.1582
     31 C          23.0549   75.5721   -3.6659 C.3     1  UNL1        0.1625
     32 C          22.8017   75.2947   -5.1515 C.3     1  UNL1        0.1686
     33 C          22.6239   73.7885   -5.3539 C.3     1  UNL1        0.1760
     34 O          23.3712   76.9531   -3.4803 O.3     1  UNL1       -0.3801
     35 O          21.6186   75.9776   -5.5703 O.3     1  UNL1       -0.3794
     36 O          23.8141   73.1055   -4.9622 O.3     1  UNL1       -0.3263
     37 H          22.6052   77.4586   -3.7855 H       1  UNL1        0.2105
     38 H          21.4963   75.7756   -6.5088 H       1  UNL1        0.2105
     39 C          23.3379   75.1610   -0.9793 C.2     1  UNL1        0.2231
     40 C          23.5064   75.2993    0.5123 C.3     1  UNL1        0.0946
     41 N          24.3952   74.8423   -1.7505 N.am    1  UNL1       -0.2994
     42 O          22.2503   75.3373   -1.4855 O.2     1  UNL1       -0.2751
     43 H          25.2658   74.7014   -1.3456 H       1  UNL1        0.1496
     44 C          22.3381   73.5038   -6.8299 C.3     1  UNL1        0.1693
     45 O          22.9398   72.2619   -7.2011 O.3     1  UNL1       -0.3794
     46 H          22.7367   72.1209   -8.1357 H       1  UNL1        0.2105
@<TRIPOS>BOND
     1    29    30    1
     2    29    28    1
     3    29    36    1
     4    30    31    1
     5    30    41    1
     6    31    32    1
     7    31    34    1
     8    32    33    1
     9    32    35    1
    10    33    44    1
    11    33    36    1
    12    44    45    1
    13    39    40    1
    14    39    41   am
    15    39    42    2
    16    41    43    1
    17    28    25    1
    18    34    37    1
    19    35    38    1
    20    45    46    1
    21    15    16   ar
    22    15    20   ar
    23    15     6    1
    24    16    17   ar
    25    16    21    2
    26    17    18   ar
    27    17    23    1
    28    18    19   ar
    29    18    22    2
    30    19    20   ar
    31     6     7    1
    32     6    11    1
    33     7     8    1
    34     7     9    1
    35     8    13    1
    36     9    10    1
    37     9    12    1
    38    10    11    1
    39    10     5    1
    40    12    14    1
    41     5     4    1
    42     4     1    1
    43     1     2    2
    44     1     3    1
    45     1    24    1
    46    24    25    1
    47    25    26    2
    48    25    27    1
@<TRIPOS>MOLECULE
UD1
 46 48 0 0 0
SMALL
GASTEIGER

@<TRIPOS>ATOM
      1 P          21.7551   72.3232   -6.2539 P.3     1  UNL1        0.2189
      2 O          20.7598   73.3627   -6.5969 O.2     1  UNL1       -0.5170
      3 O          23.2251   72.8281   -6.6742 O.3     1  UNL1       -0.4371
      4 O          21.4077   70.9658   -7.0474 O.3     1  UNL1       -0.3112
      5 C          20.5450   71.3268   -8.1271 C.3     1  UNL1        0.1811
      6 C          17.3961   70.0902   -6.9095 C.3     1  UNL1        0.2383
      7 C          17.0124   71.1309   -7.9911 C.3     1  UNL1        0.1895
      8 O          15.7841   70.7772   -8.6278 O.3     1  UNL1       -0.3779
      9 C          18.2005   71.0237   -8.9822 C.3     1  UNL1        0.1713
     10 C          19.3314   70.3962   -8.1445 C.3     1  UNL1        0.1764
     11 O          18.8300   70.2216   -6.8083 O.3     1  UNL1       -0.3308
     12 O          17.8582   70.1802  -10.0841 O.3     1  UNL1       -0.3794
     13 H          15.6026   71.4620   -9.2863 H       1  UNL1        0.2106
     14 H          17.1089   70.5955  -10.5314 H       1  UNL1        0.2105
     15 N          16.7572   70.4089   -5.6322 N.ar    1  UNL1       -0.2551
     16 C          16.3651   69.4145   -4.8168 C.ar    1  UNL1        0.3323
     17 N          15.7784   69.6782   -3.6343 N.ar    1  UNL1       -0.2743
     18 C          15.5652   70.9532   -3.2510 C.ar    1  UNL1        0.2626
     19 C          15.9675   72.0097   -4.1024 C.ar    1  UNL1        0.0795
     20 C          16.5586   71.7169   -5.2806 C.ar    1  UNL1        0.0869
     21 O          16.5507   68.2594   -5.1485 O.2     1  UNL1       -0.2464
     22 O          15.0305   71.1928   -2.1842 O.2     1  UNL1       -0.2670
     23 H          15.5063   68.9486   -3.0565 H       1  UNL1        0.1734
     24 O          21.7151   72.0437   -4.6699 O.3     1  UNL1       -0.2703
     25 P          22.6812   73.1309   -3.9815 P.3     1  UNL1        0.2208
     26 O          22.4991   74.4416   -4.6431 O.2     1  UNL1       -0.5170
     27 O          24.2137   72.6616   -4.1349 O.3     1  UNL1       -0.4371
     28 O          22.3157   73.2629   -2.4196 O.3     1  UNL1       -0.2865
     29 C          23.1824   72.3725   -1.7144 C.3     1  UNL1        0.2611
     30 C          22.3483   71.4780   -0.7957 C.3     1  UNL1        0.1582
     31 C          21.5638   72.3582    0.1837 C.3     1  UNL1        0.1625
     32 C          22.5463   73.2917    0.8989 C.3     1  UNL1        0.1686
     33 C          23.3634   74.0518   -0.1479 C.3     1  UNL1        0.1760
     34 O          20.8984   71.5331    1.1417 O.3     1  UNL1       -0.3801
     35 O          21.8211   74.2200    1.7075 O.3     1  UNL1       -0.3794
     36 O          24.1103   73.1289   -0.9397 O.3     1  UNL1       -0.3263
     37 H          20.4184   72.1263    1.7359 H       1  UNL1        0.2105
     38 H          22.4763   74.7875    2.1379 H       1  UNL1        0.2105
     39 C          20.1442   71.1012   -1.7622 C.2     1  UNL1        0.2231
     40 C          19.1836   70.2848   -2.5887 C.3     1  UNL1        0.0946
     41 N          21.4150   70.6855   -1.5989 N.am    1  UNL1       -0.2994
     42 O          19.7729   72.1322   -1.2433 O.2     1  UNL1       -0.2751
     43 H          21.7123   69.8603   -2.0138 H       1  UNL1        0.1496
     44 C          24.3255   75.0110    0.5559 C.3     1  UNL1        0.1693
     45 O          24.8085   74.4057    1.7570 O.3     1  UNL1       -0.3794
     46 H          25.4094   75.0414    2.1686 H       1  UNL1        0.2105
@<TRIPOS>BOND
     1    29    30    1
     2    29    28    1
     3    29    36    1
     4    30    31    1
     5    30    41    1
     6    31    32    1
     7    31    34    1
     8    32    33    1
     9    32    35    1
    10    33    44    1
    11    33    36    1
    12    44    45    1
    13    39    40    1
    14    39    41   am
    15    39    42    2
    16    41    43    1
    17    28    25    1
    18    34    37    1
    19    35    38    1
    20    45    46    1
    21    15    16   ar
    22    15    20   ar
    23    15     6    1
    24    16    17   ar
    25    16    21    2
    26    17    18   ar
    27    17    23    1
    28    18    19   ar
    29    18    22    2
    30    19    20   ar
    31     6     7    1
    32     6    11    1
    33     7     8    1
    34     7     9    1
    35     8    13    1
    36     9    10    1
    37     9    12    1
    38    10    11    1
    39    10     5    1
    40    12    14    1
    41     5     4    1
    42     4     1    1
    43     1     2    2
    44     1     3    1
    45     1    24    1
    46    24    25    1
    47    25    26    2
    48    25    27    1
@<TRIPOS>MOLECULE
UD1
 46 48 0 0 0
SMALL
GASTEIGER

@<TRIPOS>ATOM
      1 P          20.6836   71.2042   -0.8962 P.3     1  UNL1        0.2189
      2 O          20.5917   72.6468   -0.5810 O.2     1  UNL1       -0.5170
      3 O          21.7145   70.9854   -2.1135 O.3     1  UNL1       -0.4371
      4 O          19.2305   70.6544   -1.3195 O.3     1  UNL1       -0.3112
      5 C          19.3566   70.1260   -2.6405 C.3     1  UNL1        0.1811
      6 C          17.4146   70.4225   -5.6518 C.3     1  UNL1        0.2383
      7 C          17.1436   68.9801   -5.1556 C.3     1  UNL1        0.1895
      8 O          15.8328   68.5503   -5.5247 O.3     1  UNL1       -0.3779
      9 C          17.2618   69.1373   -3.6173 C.3     1  UNL1        0.1713
     10 C          18.0848   70.4272   -3.4349 C.3     1  UNL1        0.1764
     11 O          18.4292   70.9060   -4.7461 O.3     1  UNL1       -0.3308
     12 O          15.9671   69.2746   -3.0275 O.3     1  UNL1       -0.3794
     13 H          15.7282   67.6496   -5.1883 H       1  UNL1        0.2106
     14 H          15.4820   68.4628   -3.2267 H       1  UNL1        0.2105
     15 N          17.9127   70.4135   -7.0277 N.ar    1  UNL1       -0.2551
     16 C          17.0418   70.4272   -8.0518 C.ar    1  UNL1        0.3323
     17 N          17.4717   70.4234   -9.3274 N.ar    1  UNL1       -0.2743
     18 C          18.7920   70.3962   -9.5994 C.ar    1  UNL1        0.2626
     19 C          19.7197   70.3756   -8.5309 C.ar    1  UNL1        0.0795
     20 C          19.2613   70.3854   -7.2609 C.ar    1  UNL1        0.0869
     21 O          15.8478   70.4518   -7.8225 O.2     1  UNL1       -0.2464
     22 O          19.1817   70.3879  -10.7524 O.2     1  UNL1       -0.2670
     23 H          16.8295   70.4383  -10.0538 H       1  UNL1        0.1734
     24 O          21.2035   70.4039    0.3991 O.3     1  UNL1       -0.2703
     25 P          22.4151   71.2616    1.0202 P.3     1  UNL1        0.2208
     26 O          22.8601   72.2716    0.0349 O.2     1  UNL1       -0.5170
     27 O          23.6421   70.2808    1.3735 O.3     1  UNL1       -0.4371
     28 O          21.9186   72.0018    2.3604 O.3     1  UNL1       -0.2865
     29 C          22.3237   73.3677    2.2538 C.3     1  UNL1        0.2611
     30 C          23.2816   73.7012    3.3990 C.3     1  UNL1        0.1582
     31 C          22.5728   73.4496    4.7346 C.3     1  UNL1        0.1625
     32 C          21.2518   74.2261    4.7424 C.3     1  UNL1        0.1686
     33 C          20.4457   73.8506    3.4972 C.3     1  UNL1        0.1760
     34 O          23.4019   73.8978    5.8085 O.3     1  UNL1       -0.3801
     35 O          20.5071   73.8906    5.9148 O.3     1  UNL1       -0.3794
     36 O          21.1750   74.2096    2.3243 O.3     1  UNL1       -0.3263
     37 H          22.9186   73.7205    6.6273 H       1  UNL1        0.2105
     38 H          19.6848   74.3996    5.8791 H       1  UNL1        0.2105
     39 C          25.6700   73.3969    3.0290 C.2     1  UNL1        0.2231
     40 C          26.8934   72.5213    2.9335 C.3     1  UNL1        0.0946
     41 N          24.4703   72.8511    3.3066 N.am    1  UNL1       -0.2994
     42 O          25.7655   74.5931    2.8551 O.2     1  UNL1       -0.2751
     43 H          24.3936   71.8938    3.4456 H       1  UNL1        0.1496
     44 C          19.1098   74.5965    3.5120 C.3     1  UNL1        0.1693
     45 O          18.2518   74.0184    4.4978 O.3     1  UNL1       -0.3794
     46 H          17.4233   74.5160    4.4742 H       1  UNL1        0.2105
@<TRIPOS>BOND
     1    29    30    1
     2    29    28    1
     3    29    36    1
     4    30    31    1
     5    30    41    1
     6    31    32    1
     7    31    34    1
     8    32    33    1
     9    32    35    1
    10    33    44    1
    11    33    36    1
    12    44    45    1
    13    39    40    1
    14    39    41   am
    15    39    42    2
    16    41    43    1
    17    28    25    1
    18    34    37    1
    19    35    38    1
    20    45    46    1
    21    15    16   ar
    22    15    20   ar
    23    15     6    1
    24    16    17   ar
    25    16    21    2
    26    17    18   ar
    27    17    23    1
    28    18    19   ar
    29    18    22    2
    30    19    20   ar
    31     6     7    1
    32     6    11    1
    33     7     8    1
    34     7     9    1
    35     8    13    1
    36     9    10    1
    37     9    12    1
    38    10    11    1
    39    10     5    1
    40    12    14    1
    41     5     4    1
    42     4     1    1
    43     1     2    2
    44     1     3    1
    45     1    24    1
    46    24    25    1
    47    25    26    2
    48    25    27    1
@<TRIPOS>MOLECULE
UD1
 46 48 0 0 0
SMALL
GASTEIGER

@<TRIPOS>ATOM
      1 P          21.4876   71.3779   -2.9940 P.3     1  UNL1        0.2189
      2 O          22.5502   70.4350   -3.4069 O.2     1  UNL1       -0.5170
      3 O          21.7565   71.8609   -1.4818 O.3     1  UNL1       -0.4371
      4 O          20.0573   70.6427   -3.0752 O.3     1  UNL1       -0.3112
      5 C          19.0811   71.5863   -2.6314 C.3     1  UNL1        0.1811
      6 C          17.2753   70.9118   -5.6665 C.3     1  UNL1        0.2383
      7 C          17.3067   69.5528   -4.9233 C.3     1  UNL1        0.1895
      8 O          16.1442   68.7795   -5.2228 O.3     1  UNL1       -0.3779
      9 C          17.3097   69.9946   -3.4367 C.3     1  UNL1        0.1713
     10 C          17.8157   71.4495   -3.4795 C.3     1  UNL1        0.1764
     11 O          18.1106   71.7616   -4.8517 O.3     1  UNL1       -0.3308
     12 O          15.9889   69.9332   -2.8939 O.3     1  UNL1       -0.3794
     13 H          16.2254   67.9501   -4.7319 H       1  UNL1        0.2106
     14 H          15.7067   69.0105   -2.9497 H       1  UNL1        0.2105
     15 N          17.8314   70.7801   -7.0136 N.ar    1  UNL1       -0.2551
     16 C          17.0152   70.5146   -8.0484 C.ar    1  UNL1        0.3323
     17 N          17.4986   70.3921   -9.2988 N.ar    1  UNL1       -0.2743
     18 C          18.8198   70.5257   -9.5327 C.ar    1  UNL1        0.2626
     19 C          19.6911   70.7994   -8.4516 C.ar    1  UNL1        0.0795
     20 C          19.1789   70.9227   -7.2083 C.ar    1  UNL1        0.0869
     21 O          15.8213   70.3914   -7.8534 O.2     1  UNL1       -0.2464
     22 O          19.2585   70.4104  -10.6621 O.2     1  UNL1       -0.2670
     23 H          16.8948   70.2051  -10.0340 H       1  UNL1        0.1734
     24 O          21.4913   72.6536   -3.9746 O.3     1  UNL1       -0.2703
     25 P          23.0031   72.8355   -4.4949 P.3     1  UNL1        0.2208
     26 O          23.0857   72.4402   -5.9182 O.2     1  UNL1       -0.5170
     27 O          23.9871   71.9064   -3.6227 O.3     1  UNL1       -0.4371
     28 O          23.4439   74.3756   -4.3394 O.3     1  UNL1       -0.2865
     29 C          24.3993   74.4282   -3.2784 C.3     1  UNL1        0.2611
     30 C          23.9103   75.4038   -2.2064 C.3     1  UNL1        0.1582
     31 C          23.7244   76.7888   -2.8363 C.3     1  UNL1        0.1625
     32 C          25.0281   77.1882   -3.5356 C.3     1  UNL1        0.1686
     33 C          25.4311   76.0792   -4.5097 C.3     1  UNL1        0.1760
     34 O          23.4128   77.7404   -1.8172 O.3     1  UNL1       -0.3801
     35 O          24.8314   78.4082   -4.2529 O.3     1  UNL1       -0.3794
     36 O          25.6552   74.8657   -3.7929 O.3     1  UNL1       -0.3263
     37 H          23.3042   78.5950   -2.2567 H       1  UNL1        0.2105
     38 H          25.6743   78.6221   -4.6775 H       1  UNL1        0.2105
     39 C          21.4753   75.4305   -2.1431 C.2     1  UNL1        0.2231
     40 C          20.1607   74.9490   -1.5843 C.3     1  UNL1        0.0946
     41 N          22.6330   74.9360   -1.6642 N.am    1  UNL1       -0.2994
     42 O          21.4909   76.2639   -3.0237 O.2     1  UNL1       -0.2751
     43 H          22.6208   74.2692   -0.9594 H       1  UNL1        0.1496
     44 C          26.7152   76.4830   -5.2373 C.3     1  UNL1        0.1693
     45 O          26.6712   76.0044   -6.5831 O.3     1  UNL1       -0.3794
     46 H          27.4966   76.2791   -7.0049 H       1  UNL1        0.2105
@<TRIPOS>BOND
     1    29    30    1
     2    29    28    1
     3    29    36    1
     4    30    31    1
     5    30    41    1
     6    31    32    1
     7    31    34    1
     8    32    33    1
     9    32    35    1
    10    33    44    1
    11    33    36    1
    12    44    45    1
    13    39    40    1
    14    39    41   am
    15    39    42    2
    16    41    43    1
    17    28    25    1
    18    34    37    1
    19    35    38    1
    20    45    46    1
    21    15    16   ar
    22    15    20   ar
    23    15     6    1
    24    16    17   ar
    25    16    21    2
    26    17    18   ar
    27    17    23    1
    28    18    19   ar
    29    18    22    2
    30    19    20   ar
    31     6     7    1
    32     6    11    1
    33     7     8    1
    34     7     9    1
    35     8    13    1
    36     9    10    1
    37     9    12    1
    38    10    11    1
    39    10     5    1
    40    12    14    1
    41     5     4    1
    42     4     1    1
    43     1     2    2
    44     1     3    1
    45     1    24    1
    46    24    25    1
    47    25    26    2
    48    25    27    1
@<TRIPOS>MOLECULE
UD1
 46 48 0 0 0
SMALL
GASTEIGER

@<TRIPOS>ATOM
      1 P          22.8186   71.4106   -2.9626 P.3     1  UNL1        0.2189
      2 O          24.1862   70.8564   -3.0694 O.2     1  UNL1       -0.5170
      3 O          22.5710   72.4625   -4.1562 O.3     1  UNL1       -0.4371
      4 O          22.6523   72.1586   -1.5464 O.3     1  UNL1       -0.3112
      5 C          23.8313   71.8792   -0.7898 C.3     1  UNL1        0.1811
      6 C          23.2487   72.0746    2.7527 C.3     1  UNL1        0.2383
      7 C          21.8636   72.3505    2.1157 C.3     1  UNL1        0.1895
      8 O          20.8104   71.8923    2.9642 O.3     1  UNL1       -0.3779
      9 C          21.9307   71.5104    0.8139 C.3     1  UNL1        0.1713
     10 C          23.4398   71.3103    0.5749 C.3     1  UNL1        0.1764
     11 O          24.1369   72.0148    1.6165 O.3     1  UNL1       -0.3308
     12 O          21.2754   70.2533    0.9953 O.3     1  UNL1       -0.3794
     13 H          19.9791   72.0932    2.5124 H       1  UNL1        0.2106
     14 H          20.3509   70.4473    1.2000 H       1  UNL1        0.2105
     15 N          23.6331   73.1635    3.6516 N.ar    1  UNL1       -0.2551
     16 C          24.8907   73.6379    3.6238 C.ar    1  UNL1        0.3323
     17 N          25.2711   74.6414    4.4366 N.ar    1  UNL1       -0.2743
     18 C          24.3925   75.1837    5.3037 C.ar    1  UNL1        0.2626
     19 C          23.0670   74.6898    5.3476 C.ar    1  UNL1        0.0795
     20 C          22.7107   73.6862    4.5175 C.ar    1  UNL1        0.0869
     21 O          25.6946   73.1591    2.8472 O.2     1  UNL1       -0.2464
     22 O          24.7367   76.0878    6.0423 O.2     1  UNL1       -0.2670
     23 H          26.1810   74.9744    4.3997 H       1  UNL1        0.1734
     24 O          21.7458   70.2160   -3.0675 O.3     1  UNL1       -0.2703
     25 P          20.2902   70.8831   -2.9078 P.3     1  UNL1        0.2208
     26 O          20.4287   72.3534   -2.8180 O.2     1  UNL1       -0.5170
     27 O          19.5888   70.3282   -1.5690 O.3     1  UNL1       -0.4371
     28 O          19.3830   70.5065   -4.1828 O.3     1  UNL1       -0.2865
     29 C          18.8608   71.7331   -4.6967 C.3     1  UNL1        0.2611
     30 C          17.3834   71.5458   -5.0464 C.3     1  UNL1        0.1582
     31 C          17.2520   70.4249   -6.0837 C.3     1  UNL1        0.1625
     32 C          18.1673   70.7453   -7.2701 C.3     1  UNL1        0.1686
     33 C          19.5864   70.9899   -6.7529 C.3     1  UNL1        0.1760
     34 O          15.8970   70.3411   -6.5290 O.3     1  UNL1       -0.3801
     35 O          18.1722   69.6443   -8.1808 O.3     1  UNL1       -0.3794
     36 O          19.5898   72.1063   -5.8640 O.3     1  UNL1       -0.3263
     37 H          15.8600   69.6252   -7.1782 H       1  UNL1        0.2105
     38 H          18.7599   69.8873   -8.9103 H       1  UNL1        0.2105
     39 C          16.4137   69.8923   -3.5432 C.2     1  UNL1        0.2231
     40 C          15.6437   69.5238   -2.3007 C.3     1  UNL1        0.0946
     41 N          16.6359   71.1873   -3.8393 N.am    1  UNL1       -0.2994
     42 O          16.8329   69.0227   -4.2769 O.2     1  UNL1       -0.2751
     43 H          16.3004   71.8834   -3.2524 H       1  UNL1        0.1496
     44 C          20.5156   71.2788   -7.9337 C.3     1  UNL1        0.1693
     45 O          20.8435   72.6696   -7.9531 O.3     1  UNL1       -0.3794
     46 H          21.4284   72.8086   -8.7102 H       1  UNL1        0.2105
@<TRIPOS>BOND
     1    29    30    1
     2    29    28    1
     3    29    36    1
     4    30    31    1
     5    30    41    1
     6    31    32    1
     7    31    34    1
     8    32    33    1
     9    32    35    1
    10    33    44    1
    11    33    36    1
    12    44    45    1
    13    39    40    1
    14    39    41   am
    15    39    42    2
    16    41    43    1
    17    28    25    1
    18    34    37    1
    19    35    38    1
    20    45    46    1
    21    15    16   ar
    22    15    20   ar
    23    15     6    1
    24    16    17   ar
    25    16    21    2
    26    17    18   ar
    27    17    23    1
    28    18    19   ar
    29    18    22    2
    30    19    20   ar
    31     6     7    1
    32     6    11    1
    33     7     8    1
    34     7     9    1
    35     8    13    1
    36     9    10    1
    37     9    12    1
    38    10    11    1
    39    10     5    1
    40    12    14    1
    41     5     4    1
    42     4     1    1
    43     1     2    2
    44     1     3    1
    45     1    24    1
    46    24    25    1
    47    25    26    2
    48    25    27    1
@<TRIPOS>MOLECULE
UD1
 46 48 0 0 0
SMALL
GASTEIGER

@<TRIPOS>ATOM
      1 P          22.8311   72.3101   -3.9371 P.3     1  UNL1        0.2189
      2 O          24.2151   72.8161   -4.0679 O.2     1  UNL1       -0.5170
      3 O          21.8194   73.5513   -3.7691 O.3     1  UNL1       -0.4371
      4 O          22.7289   71.3568   -2.6434 O.3     1  UNL1       -0.3112
      5 C          22.9879   72.1773   -1.5032 C.3     1  UNL1        0.1811
      6 C          24.4084   71.4788    1.7250 C.3     1  UNL1        0.2383
      7 C          22.9649   71.9513    2.0301 C.3     1  UNL1        0.1895
      8 O          22.4604   71.3244    3.2098 O.3     1  UNL1       -0.3779
      9 C          22.1924   71.4702    0.7743 C.3     1  UNL1        0.1713
     10 C          23.2887   71.2909   -0.2936 C.3     1  UNL1        0.1764
     11 O          24.5370   71.6837    0.3019 O.3     1  UNL1       -0.3308
     12 O          21.5334   70.2295    1.0371 O.3     1  UNL1       -0.3794
     13 H          21.5632   71.6600    3.3436 H       1  UNL1        0.2106
     14 H          20.9045   70.3935    1.7525 H       1  UNL1        0.2105
     15 N          25.3851   72.2891    2.4535 N.ar    1  UNL1       -0.2551
     16 C          26.6198   71.8054    2.6747 C.ar    1  UNL1        0.3323
     17 N          27.5397   72.5303    3.3384 N.ar    1  UNL1       -0.2743
     18 C          27.2314   73.7579    3.8030 C.ar    1  UNL1        0.2626
     19 C          25.9334   74.2770    3.5824 C.ar    1  UNL1        0.0795
     20 C          25.0318   73.5307    2.9089 C.ar    1  UNL1        0.0869
     21 O          26.9129   70.6998    2.2619 O.2     1  UNL1       -0.2464
     22 O          28.0608   74.4123    4.4074 O.2     1  UNL1       -0.2670
     23 H          28.4269   72.1676    3.4848 H       1  UNL1        0.1734
     24 O          22.4395   71.4717   -5.2535 O.3     1  UNL1       -0.2703
     25 P          21.4436   72.3969   -6.1146 P.3     1  UNL1        0.2208
     26 O          21.5627   72.0489   -7.5477 O.2     1  UNL1       -0.5170
     27 O          21.8323   73.9451   -5.9050 O.3     1  UNL1       -0.4371
     28 O          19.9287   72.1548   -5.6279 O.3     1  UNL1       -0.2865
     29 C          19.6929   70.7471   -5.6914 C.3     1  UNL1        0.2611
     30 C          18.3994   70.4862   -6.4653 C.3     1  UNL1        0.1582
     31 C          17.2402   71.1977   -5.7584 C.3     1  UNL1        0.1625
     32 C          17.2204   70.7619   -4.2894 C.3     1  UNL1        0.1686
     33 C          18.6022   71.0050   -3.6788 C.3     1  UNL1        0.1760
     34 O          16.0063   70.8405   -6.3840 O.3     1  UNL1       -0.3801
     35 O          16.2417   71.5224   -3.5785 O.3     1  UNL1       -0.3794
     36 O          19.5782   70.2256   -4.3692 O.3     1  UNL1       -0.3263
     37 H          15.3063   71.3093   -5.9091 H       1  UNL1        0.2105
     38 H          16.2632   71.2173   -2.6604 H       1  UNL1        0.2105
     39 C          18.9041   70.1776   -8.8284 C.2     1  UNL1        0.2231
     40 C          19.0413   70.7085  -10.2325 C.3     1  UNL1        0.0946
     41 N          18.5323   71.0013   -7.8296 N.am    1  UNL1       -0.2994
     42 O          19.1291   69.0088   -8.5974 O.2     1  UNL1       -0.2751
     43 H          18.3524   71.9368   -8.0141 H       1  UNL1        0.1496
     44 C          18.5839   70.6032   -2.2026 C.3     1  UNL1        0.1693
     45 O          19.9252   70.4781   -1.7259 O.3     1  UNL1       -0.3794
     46 H          19.8687   70.2242   -0.7947 H       1  UNL1        0.2105
@<TRIPOS>BOND
     1    29    30    1
     2    29    28    1
     3    29    36    1
     4    30    31    1
     5    30    41    1
     6    31    32    1
     7    31    34    1
     8    32    33    1
     9    32    35    1
    10    33    44    1
    11    33    36    1
    12    44    45    1
    13    39    40    1
    14    39    41   am
    15    39    42    2
    16    41    43    1
    17    28    25    1
    18    34    37    1
    19    35    38    1
    20    45    46    1
    21    15    16   ar
    22    15    20   ar
    23    15     6    1
    24    16    17   ar
    25    16    21    2
    26    17    18   ar
    27    17    23    1
    28    18    19   ar
    29    18    22    2
    30    19    20   ar
    31     6     7    1
    32     6    11    1
    33     7     8    1
    34     7     9    1
    35     8    13    1
    36     9    10    1
    37     9    12    1
    38    10    11    1
    39    10     5    1
    40    12    14    1
    41     5     4    1
    42     4     1    1
    43     1     2    2
    44     1     3    1
    45     1    24    1
    46    24    25    1
    47    25    26    2
    48    25    27    1
@<TRIPOS>MOLECULE
UD1
 46 48 0 0 0
SMALL
GASTEIGER

@<TRIPOS>ATOM
      1 P          22.7266   71.3286   -2.8067 P.3     1  UNL1        0.2189
      2 O          24.1177   70.8734   -3.0221 O.2     1  UNL1       -0.5170
      3 O          22.5610   72.8304   -3.3633 O.3     1  UNL1       -0.4371
      4 O          22.3912   71.3009   -1.2320 O.3     1  UNL1       -0.3112
      5 C          22.7050   72.5966   -0.7192 C.3     1  UNL1        0.1811
      6 C          24.2294   72.6232    2.5370 C.3     1  UNL1        0.2383
      7 C          23.9007   71.1322    2.2744 C.3     1  UNL1        0.1895
      8 O          24.8436   70.2788    2.9240 O.3     1  UNL1       -0.3779
      9 C          24.0370   71.0352    0.7326 C.3     1  UNL1        0.1713
     10 C          23.8827   72.4908    0.2509 C.3     1  UNL1        0.1764
     11 O          23.6351   73.3033    1.4110 O.3     1  UNL1       -0.3308
     12 O          25.3200   70.5166    0.3754 O.3     1  UNL1       -0.3794
     13 H          24.5836   69.3693    2.7224 H       1  UNL1        0.2106
     14 H          25.3783   69.6297    0.7550 H       1  UNL1        0.2105
     15 N          23.6252   73.0754    3.7907 N.ar    1  UNL1       -0.2551
     16 C          22.3474   72.7610    4.0659 C.ar    1  UNL1        0.3323
     17 N          21.7670   73.1601    5.2131 N.ar    1  UNL1       -0.2743
     18 C          22.4609   73.8945    6.1060 C.ar    1  UNL1        0.2626
     19 C          23.8051   74.2376    5.8262 C.ar    1  UNL1        0.0795
     20 C          24.3642   73.8196    4.6703 C.ar    1  UNL1        0.0869
     21 O          21.7085   72.0992    3.2706 O.2     1  UNL1       -0.2464
     22 O          21.9357   74.2599    7.1414 O.2     1  UNL1       -0.2670
     23 H          20.8458   72.9203    5.3975 H       1  UNL1        0.1734
     24 O          21.7150   70.3512   -3.5879 O.3     1  UNL1       -0.2703
     25 P          20.2272   70.8853   -3.2871 P.3     1  UNL1        0.2208
     26 O          20.2423   72.3619   -3.1960 O.2     1  UNL1       -0.5170
     27 O          19.7059   70.2679   -1.8945 O.3     1  UNL1       -0.4371
     28 O          19.2420   70.4312   -4.4760 O.3     1  UNL1       -0.2865
     29 C          18.6933   71.6245   -5.0383 C.3     1  UNL1        0.2611
     30 C          17.2059   71.4104   -5.3245 C.3     1  UNL1        0.1582
     31 C          17.0462   70.2329   -6.2927 C.3     1  UNL1        0.1625
     32 C          17.9170   70.4915   -7.5268 C.3     1  UNL1        0.1686
     33 C          19.3516   70.7719   -7.0745 C.3     1  UNL1        0.1760
     34 O          15.6770   70.1174   -6.6844 O.3     1  UNL1       -0.3801
     35 O          17.8979   69.3416   -8.3747 O.3     1  UNL1       -0.3794
     36 O          19.3782   71.9360   -6.2495 O.3     1  UNL1       -0.3263
     37 H          15.6224   69.3663   -7.2912 H       1  UNL1        0.2105
     38 H          18.4578   69.5467   -9.1369 H       1  UNL1        0.2105
     39 C          16.3009   69.8380   -3.6988 C.2     1  UNL1        0.2231
     40 C          15.5776   69.5352   -2.4114 C.3     1  UNL1        0.0946
     41 N          16.5038   71.1157   -4.0736 N.am    1  UNL1       -0.2994
     42 O          16.6997   68.9312   -4.3979 O.2     1  UNL1       -0.2751
     43 H          16.1845   71.8416   -3.5145 H       1  UNL1        0.1496
     44 C          20.2367   70.9995   -8.3017 C.3     1  UNL1        0.1693
     45 O          19.4170   71.3182   -9.4281 O.3     1  UNL1       -0.3794
     46 H          20.0122   71.4533  -10.1779 H       1  UNL1        0.2105
@<TRIPOS>BOND
     1    29    30    1
     2    29    28    1
     3    29    36    1
     4    30    31    1
     5    30    41    1
     6    31    32    1
     7    31    34    1
     8    32    33    1
     9    32    35    1
    10    33    44    1
    11    33    36    1
    12    44    45    1
    13    39    40    1
    14    39    41   am
    15    39    42    2
    16    41    43    1
    17    28    25    1
    18    34    37    1
    19    35    38    1
    20    45    46    1
    21    15    16   ar
    22    15    20   ar
    23    15     6    1
    24    16    17   ar
    25    16    21    2
    26    17    18   ar
    27    17    23    1
    28    18    19   ar
    29    18    22    2
    30    19    20   ar
    31     6     7    1
    32     6    11    1
    33     7     8    1
    34     7     9    1
    35     8    13    1
    36     9    10    1
    37     9    12    1
    38    10    11    1
    39    10     5    1
    40    12    14    1
    41     5     4    1
    42     4     1    1
    43     1     2    2
    44     1     3    1
    45     1    24    1
    46    24    25    1
    47    25    26    2
    48    25    27    1
@<TRIPOS>MOLECULE
UD1
 46 48 0 0 0
SMALL
GASTEIGER

@<TRIPOS>ATOM
      1 P          23.0339   73.2923   -4.2315 P.3     1  UNL1        0.2189
      2 O          24.1228   72.2913   -4.2637 O.2     1  UNL1       -0.5170
      3 O          23.0186   74.1136   -5.6163 O.3     1  UNL1       -0.4371
      4 O          23.2773   74.3101   -3.0077 O.3     1  UNL1       -0.3112
      5 C          22.1194   75.1423   -2.9249 C.3     1  UNL1        0.1811
      6 C          22.0153   73.9903    0.4794 C.3     1  UNL1        0.2383
      7 C          22.7378   75.3587    0.5546 C.3     1  UNL1        0.1895
      8 O          22.4810   76.0044    1.8021 O.3     1  UNL1       -0.3779
      9 C          22.0836   76.1371   -0.6164 C.3     1  UNL1        0.1713
     10 C          21.5107   75.0331   -1.5260 C.3     1  UNL1        0.1764
     11 O          21.8596   73.7681   -0.9383 O.3     1  UNL1       -0.3308
     12 O          21.0411   76.9864   -0.1321 O.3     1  UNL1       -0.3794
     13 H          22.9572   76.8461    1.7852 H       1  UNL1        0.2106
     14 H          21.4527   77.6152    0.4756 H       1  UNL1        0.2105
     15 N          22.8343   72.9368    1.0801 N.ar    1  UNL1       -0.2551
     16 C          22.2544   71.7970    1.4949 C.ar    1  UNL1        0.3323
     17 N          22.9837   70.8095    2.0474 N.ar    1  UNL1       -0.2743
     18 C          24.3153   70.9535    2.2027 C.ar    1  UNL1        0.2626
     19 C          24.9377   72.1507    1.7759 C.ar    1  UNL1        0.0795
     20 C          24.1832   73.1228    1.2201 C.ar    1  UNL1        0.0869
     21 O          21.0545   71.6523    1.3616 O.2     1  UNL1       -0.2464
     22 O          24.9749   70.0632    2.7065 O.2     1  UNL1       -0.2670
     23 H          22.5496   69.9922    2.3367 H       1  UNL1        0.1734
     24 O          21.6230   72.5443   -4.0345 O.3     1  UNL1       -0.2703
     25 P          20.8695   72.5914   -5.4555 P.3     1  UNL1        0.2208
     26 O          21.6302   71.7953   -6.4437 O.2     1  UNL1       -0.5170
     27 O          20.7685   74.1170   -5.9599 O.3     1  UNL1       -0.4371
     28 O          19.3887   71.9801   -5.2997 O.3     1  UNL1       -0.2865
     29 C          19.4972   70.5716   -5.5127 C.3     1  UNL1        0.2611
     30 C          18.4211   70.1264   -6.5046 C.3     1  UNL1        0.1582
     31 C          17.0412   70.4837   -5.9409 C.3     1  UNL1        0.1625
     32 C          16.9174   69.8890   -4.5341 C.3     1  UNL1        0.1686
     33 C          18.1056   70.3546   -3.6898 C.3     1  UNL1        0.1760
     34 O          16.0240   69.9412   -6.7849 O.3     1  UNL1       -0.3801
     35 O          15.6993   70.3325   -3.9332 O.3     1  UNL1       -0.3794
     36 O          19.3226   69.8899   -4.2724 O.3     1  UNL1       -0.3263
     37 H          15.1749   70.1895   -6.3942 H       1  UNL1        0.2105
     38 H          15.6622   69.9364   -3.0510 H       1  UNL1        0.2105
     39 C          19.0492   70.1207   -8.8582 C.2     1  UNL1        0.2231
     40 C          19.2550   70.8256  -10.1747 C.3     1  UNL1        0.0946
     41 N          18.6207   70.8107   -7.7837 N.am    1  UNL1       -0.2994
     42 O          19.2701   68.9320   -8.7660 O.2     1  UNL1       -0.2751
     43 H          18.4441   71.7620   -7.8572 H       1  UNL1        0.1496
     44 C          17.9744   69.7923   -2.2729 C.3     1  UNL1        0.1693
     45 O          17.2332   68.5711   -2.3114 O.3     1  UNL1       -0.3794
     46 H          17.1735   68.2512   -1.4010 H       1  UNL1        0.2105
@<TRIPOS>BOND
     1    29    30    1
     2    29    28    1
     3    29    36    1
     4    30    31    1
     5    30    41    1
     6    31    32    1
     7    31    34    1
     8    32    33    1
     9    32    35    1
    10    33    44    1
    11    33    36    1
    12    44    45    1
    13    39    40    1
    14    39    41   am
    15    39    42    2
    16    41    43    1
    17    28    25    1
    18    34    37    1
    19    35    38    1
    20    45    46    1
    21    15    16   ar
    22    15    20   ar
    23    15     6    1
    24    16    17   ar
    25    16    21    2
    26    17    18   ar
    27    17    23    1
    28    18    19   ar
    29    18    22    2
    30    19    20   ar
    31     6     7    1
    32     6    11    1
    33     7     8    1
    34     7     9    1
    35     8    13    1
    36     9    10    1
    37     9    12    1
    38    10    11    1
    39    10     5    1
    40    12    14    1
    41     5     4    1
    42     4     1    1
    43     1     2    2
    44     1     3    1
    45     1    24    1
    46    24    25    1
    47    25    26    2
    48    25    27    1
@<TRIPOS>MOLECULE
UD1
 46 48 0 0 0
SMALL
GASTEIGER

@<TRIPOS>ATOM
      1 P          23.4482   72.3911   -3.1092 P.3     1  UNL1        0.2189
      2 O          24.4063   73.3168   -3.7524 O.2     1  UNL1       -0.5170
      3 O          24.0803   70.9109   -3.0636 O.3     1  UNL1       -0.4371
      4 O          22.0790   72.3630   -3.9561 O.3     1  UNL1       -0.3112
      5 C          22.4373   72.5360   -5.3280 C.3     1  UNL1        0.1811
      6 C          19.4521   70.6798   -6.0831 C.3     1  UNL1        0.2383
      7 C          19.2079   72.0774   -6.7052 C.3     1  UNL1        0.1895
      8 O          18.3766   71.9836   -7.8625 O.3     1  UNL1       -0.3779
      9 C          20.6442   72.5181   -7.0899 C.3     1  UNL1        0.1713
     10 C          21.5536   71.6458   -6.2031 C.3     1  UNL1        0.1764
     11 O          20.6995   70.8390   -5.3744 O.3     1  UNL1       -0.3308
     12 O          20.8917   72.2637   -8.4744 O.3     1  UNL1       -0.3794
     13 H          18.2634   72.8830   -8.1998 H       1  UNL1        0.2106
     14 H          20.2540   72.7912   -8.9736 H       1  UNL1        0.2105
     15 N          18.3743   70.3274   -5.1582 N.ar    1  UNL1       -0.2551
     16 C          17.2603   69.7383   -5.6266 C.ar    1  UNL1        0.3323
     17 N          16.2546   69.3996   -4.7983 N.ar    1  UNL1       -0.2743
     18 C          16.3461   69.6564   -3.4778 C.ar    1  UNL1        0.2626
     19 C          17.5107   70.2816   -2.9722 C.ar    1  UNL1        0.0795
     20 C          18.5066   70.6058   -3.8245 C.ar    1  UNL1        0.0869
     21 O          17.1629   69.5001   -6.8150 O.2     1  UNL1       -0.2464
     22 O          15.4354   69.3550   -2.7287 O.2     1  UNL1       -0.2670
     23 H          15.4603   68.9710   -5.1527 H       1  UNL1        0.1734
     24 O          23.1420   72.8913   -1.6109 O.3     1  UNL1       -0.2703
     25 P          22.6182   71.6097   -0.7909 P.3     1  UNL1        0.2208
     26 O          23.7759   70.8118   -0.3306 O.2     1  UNL1       -0.5170
     27 O          21.6888   70.7047   -1.7445 O.3     1  UNL1       -0.4371
     28 O          21.7632   72.0983    0.4822 O.3     1  UNL1       -0.2865
     29 C          22.3559   73.3162    0.9368 C.3     1  UNL1        0.2611
     30 C          22.8985   73.1159    2.3530 C.3     1  UNL1        0.1582
     31 C          21.7486   72.6964    3.2756 C.3     1  UNL1        0.1625
     32 C          20.6190   73.7241    3.1494 C.3     1  UNL1        0.1686
     33 C          20.2463   73.8762    1.6732 C.3     1  UNL1        0.1760
     34 O          22.2108   72.6514    4.6268 O.3     1  UNL1       -0.3801
     35 O          19.4806   73.2760    3.8875 O.3     1  UNL1       -0.3794
     36 O          21.3737   74.3499    0.9376 O.3     1  UNL1       -0.3263
     37 H          21.4575   72.3837    5.1711 H       1  UNL1        0.2105
     38 H          18.7947   73.9504    3.7805 H       1  UNL1        0.2105
     39 C          25.2235   72.3996    2.4770 C.2     1  UNL1        0.2231
     40 C          26.2792   71.3237    2.4645 C.3     1  UNL1        0.0946
     41 N          23.9244   72.0710    2.3414 N.am    1  UNL1       -0.2994
     42 O          25.5437   73.5617    2.6086 O.2     1  UNL1       -0.2751
     43 H          23.6679   71.1411    2.2359 H       1  UNL1        0.1496
     44 C          19.0965   74.8767    1.5393 C.3     1  UNL1        0.1693
     45 O          19.0189   75.6750    2.7220 O.3     1  UNL1       -0.3794
     46 H          18.2836   76.2901    2.5967 H       1  UNL1        0.2105
@<TRIPOS>BOND
     1    29    30    1
     2    29    28    1
     3    29    36    1
     4    30    31    1
     5    30    41    1
     6    31    32    1
     7    31    34    1
     8    32    33    1
     9    32    35    1
    10    33    44    1
    11    33    36    1
    12    44    45    1
    13    39    40    1
    14    39    41   am
    15    39    42    2
    16    41    43    1
    17    28    25    1
    18    34    37    1
    19    35    38    1
    20    45    46    1
    21    15    16   ar
    22    15    20   ar
    23    15     6    1
    24    16    17   ar
    25    16    21    2
    26    17    18   ar
    27    17    23    1
    28    18    19   ar
    29    18    22    2
    30    19    20   ar
    31     6     7    1
    32     6    11    1
    33     7     8    1
    34     7     9    1
    35     8    13    1
    36     9    10    1
    37     9    12    1
    38    10    11    1
    39    10     5    1
    40    12    14    1
    41     5     4    1
    42     4     1    1
    43     1     2    2
    44     1     3    1
    45     1    24    1
    46    24    25    1
    47    25    26    2
    48    25    27    1
@<TRIPOS>MOLECULE
UD1
 46 48 0 0 0
SMALL
GASTEIGER

@<TRIPOS>ATOM
      1 P          22.3918   71.7266   -1.2680 P.3     1  UNL1        0.2189
      2 O          23.6819   71.0349   -1.0539 O.2     1  UNL1       -0.5170
      3 O          21.2503   70.6417   -1.6035 O.3     1  UNL1       -0.4371
      4 O          22.5325   72.7544   -2.4996 O.3     1  UNL1       -0.3112
      5 C          21.3306   72.6507   -3.2646 C.3     1  UNL1        0.1811
      6 C          20.4209   71.1498   -6.4025 C.3     1  UNL1        0.2383
      7 C          20.9971   72.5354   -6.7876 C.3     1  UNL1        0.1895
      8 O          21.6200   72.4910   -8.0718 O.3     1  UNL1       -0.3779
      9 C          22.0470   72.7731   -5.6712 C.3     1  UNL1        0.1713
     10 C          21.6000   71.8373   -4.5315 C.3     1  UNL1        0.1764
     11 O          20.3923   71.1851   -4.9598 O.3     1  UNL1       -0.3308
     12 O          23.3542   72.4231   -6.1310 O.3     1  UNL1       -0.3794
     13 H          21.9557   73.3801   -8.2512 H       1  UNL1        0.2106
     14 H          23.5511   73.0018   -6.8796 H       1  UNL1        0.2105
     15 N          19.0709   70.9806   -6.9415 N.ar    1  UNL1       -0.2551
     16 C          18.8944   70.3286   -8.1039 C.ar    1  UNL1        0.3323
     17 N          17.6638   70.1548   -8.6212 N.ar    1  UNL1       -0.2743
     18 C          16.5824   70.6437   -7.9812 C.ar    1  UNL1        0.2626
     19 C          16.7544   71.3374   -6.7597 C.ar    1  UNL1        0.0795
     20 C          17.9995   71.4928   -6.2607 C.ar    1  UNL1        0.0869
     21 O          19.8599   69.8818   -8.6928 O.2     1  UNL1       -0.2464
     22 O          15.4698   70.4914   -8.4505 O.2     1  UNL1       -0.2670
     23 H          17.5545   69.6778   -9.4583 H       1  UNL1        0.1734
     24 O          21.9894   72.5361    0.0630 O.3     1  UNL1       -0.2703
     25 P          22.3173   71.5731    1.3098 P.3     1  UNL1        0.2208
     26 O          23.7809   71.3851    1.4161 O.2     1  UNL1       -0.5170
     27 O          21.6083   70.1450    1.0866 O.3     1  UNL1       -0.4371
     28 O          21.7622   72.2402    2.6653 O.3     1  UNL1       -0.2865
     29 C          22.0135   73.6434    2.5697 C.3     1  UNL1        0.2611
     30 C          22.8955   74.0794    3.7410 C.3     1  UNL1        0.1582
     31 C          22.1830   73.7456    5.0565 C.3     1  UNL1        0.1625
     32 C          20.7831   74.3682    5.0273 C.3     1  UNL1        0.1686
     33 C          20.0592   73.9079    3.7603 C.3     1  UNL1        0.1760
     34 O          22.9262   74.2813    6.1529 O.3     1  UNL1       -0.3801
     35 O          20.0488   73.9475    6.1786 O.3     1  UNL1       -0.3794
     36 O          20.7756   74.3502    2.6081 O.3     1  UNL1       -0.3263
     37 H          22.4435   74.0483    6.9580 H       1  UNL1        0.2105
     38 H          19.1757   74.3607    6.1199 H       1  UNL1        0.2105
     39 C          25.2779   74.0019    3.2387 C.2     1  UNL1        0.2231
     40 C          26.5944   73.2701    3.1776 C.3     1  UNL1        0.0946
     41 N          24.1747   73.3691    3.6820 N.am    1  UNL1       -0.2994
     42 O          25.2117   75.1607    2.8880 O.2     1  UNL1       -0.2751
     43 H          24.2274   72.4416    3.9625 H       1  UNL1        0.1496
     44 C          18.6479   74.4983    3.7377 C.3     1  UNL1        0.1693
     45 O          18.3152   74.8876    2.4036 O.3     1  UNL1       -0.3794
     46 H          17.4210   75.2538    2.4336 H       1  UNL1        0.2105
@<TRIPOS>BOND
     1    29    30    1
     2    29    28    1
     3    29    36    1
     4    30    31    1
     5    30    41    1
     6    31    32    1
     7    31    34    1
     8    32    33    1
     9    32    35    1
    10    33    44    1
    11    33    36    1
    12    44    45    1
    13    39    40    1
    14    39    41   am
    15    39    42    2
    16    41    43    1
    17    28    25    1
    18    34    37    1
    19    35    38    1
    20    45    46    1
    21    15    16   ar
    22    15    20   ar
    23    15     6    1
    24    16    17   ar
    25    16    21    2
    26    17    18   ar
    27    17    23    1
    28    18    19   ar
    29    18    22    2
    30    19    20   ar
    31     6     7    1
    32     6    11    1
    33     7     8    1
    34     7     9    1
    35     8    13    1
    36     9    10    1
    37     9    12    1
    38    10    11    1
    39    10     5    1
    40    12    14    1
    41     5     4    1
    42     4     1    1
    43     1     2    2
    44     1     3    1
    45     1    24    1
    46    24    25    1
    47    25    26    2
    48    25    27    1
@<TRIPOS>MOLECULE
UD1
 46 48 0 0 0
SMALL
GASTEIGER

@<TRIPOS>ATOM
      1 P          16.3074   69.5988   -2.7923 P.3     1  UNL1        0.2189
      2 O          15.8947   69.1684   -4.1462 O.2     1  UNL1       -0.5170
      3 O          17.0113   68.3681   -2.0290 O.3     1  UNL1       -0.4371
      4 O          15.0117   70.0732   -1.9623 O.3     1  UNL1       -0.3112
      5 C          14.8597   69.1600   -0.8745 C.3     1  UNL1        0.1811
      6 C          12.0959   68.0495    1.1392 C.3     1  UNL1        0.2383
      7 C          12.4060   69.4759    1.6584 C.3     1  UNL1        0.1895
      8 O          11.2219   70.1140    2.1379 O.3     1  UNL1       -0.3779
      9 C          12.9353   70.1792    0.3816 C.3     1  UNL1        0.1713
     10 C          13.3764   69.0179   -0.5301 C.3     1  UNL1        0.1764
     11 O          13.1577   67.7957    0.1950 O.3     1  UNL1       -0.3308
     12 O          11.8967   70.9422   -0.2364 O.3     1  UNL1       -0.3794
     13 H          11.4824   70.9932    2.4456 H       1  UNL1        0.2106
     14 H          11.6234   71.6122    0.4043 H       1  UNL1        0.2105
     15 N          12.1350   67.0786    2.2334 N.ar    1  UNL1       -0.2551
     16 C          13.3188   66.6152    2.6709 C.ar    1  UNL1        0.3323
     17 N          13.3850   65.7246    3.6782 N.ar    1  UNL1       -0.2743
     18 C          12.2563   65.2736    4.2618 C.ar    1  UNL1        0.2626
     19 C          11.0031   65.7487    3.8070 C.ar    1  UNL1        0.0795
     20 C          10.9658   66.6458    2.7985 C.ar    1  UNL1        0.0869
     21 O          14.3456   67.0125    2.1547 O.2     1  UNL1       -0.2464
     22 O          12.3148   64.4648    5.1694 O.2     1  UNL1       -0.2670
     23 H          14.2476   65.4046    3.9842 H       1  UNL1        0.1734
     24 O          17.3457   70.8222   -2.9113 O.3     1  UNL1       -0.2703
     25 P          18.5504   70.3197   -3.8523 P.3     1  UNL1        0.2208
     26 O          18.9261   68.9387   -3.4771 O.2     1  UNL1       -0.5170
     27 O          19.8207   71.2907   -3.6636 O.3     1  UNL1       -0.4371
     28 O          18.0789   70.3482   -5.3910 O.3     1  UNL1       -0.2865
     29 C          18.1535   71.7082   -5.8222 C.3     1  UNL1        0.2611
     30 C          16.8537   72.0837   -6.5360 C.3     1  UNL1        0.1582
     31 C          16.6502   71.1471   -7.7323 C.3     1  UNL1        0.1625
     32 C          17.9088   71.1870   -8.6056 C.3     1  UNL1        0.1686
     33 C          19.1288   70.8761   -7.7360 C.3     1  UNL1        0.1760
     34 O          15.5214   71.5806   -8.4933 O.3     1  UNL1       -0.3801
     35 O          17.8002   70.2127   -9.6451 O.3     1  UNL1       -0.3794
     36 O          19.2560   71.8630   -6.7132 O.3     1  UNL1       -0.3263
     37 H          15.4302   70.9648   -9.2335 H       1  UNL1        0.2105
     38 H          18.6117   70.2712  -10.1691 H       1  UNL1        0.2105
     39 C          15.2994   73.0133   -4.9069 C.2     1  UNL1        0.2231
     40 C          14.1413   72.8718   -3.9523 C.3     1  UNL1        0.0946
     41 N          15.7284   71.9469   -5.6090 N.am    1  UNL1       -0.2994
     42 O          15.8455   74.0873   -5.0425 O.2     1  UNL1       -0.2751
     43 H          15.2917   71.0872   -5.5004 H       1  UNL1        0.1496
     44 C          20.3879   70.8814   -8.6054 C.3     1  UNL1        0.1693
     45 O          21.0419   72.1467   -8.4895 O.3     1  UNL1       -0.3794
     46 H          21.8277   72.1080   -9.0514 H       1  UNL1        0.2105
@<TRIPOS>BOND
     1    29    30    1
     2    29    28    1
     3    29    36    1
     4    30    31    1
     5    30    41    1
     6    31    32    1
     7    31    34    1
     8    32    33    1
     9    32    35    1
    10    33    44    1
    11    33    36    1
    12    44    45    1
    13    39    40    1
    14    39    41   am
    15    39    42    2
    16    41    43    1
    17    28    25    1
    18    34    37    1
    19    35    38    1
    20    45    46    1
    21    15    16   ar
    22    15    20   ar
    23    15     6    1
    24    16    17   ar
    25    16    21    2
    26    17    18   ar
    27    17    23    1
    28    18    19   ar
    29    18    22    2
    30    19    20   ar
    31     6     7    1
    32     6    11    1
    33     7     8    1
    34     7     9    1
    35     8    13    1
    36     9    10    1
    37     9    12    1
    38    10    11    1
    39    10     5    1
    40    12    14    1
    41     5     4    1
    42     4     1    1
    43     1     2    2
    44     1     3    1
    45     1    24    1
    46    24    25    1
    47    25    26    2
    48    25    27    1
@<TRIPOS>MOLECULE
UD1
 46 48 0 0 0
SMALL
GASTEIGER

@<TRIPOS>ATOM
      1 P          23.5202   72.0151   -3.1346 P.3     1  UNL1        0.2189
      2 O          24.2855   72.9467   -3.9920 O.2     1  UNL1       -0.5170
      3 O          24.2677   70.5897   -3.0901 O.3     1  UNL1       -0.4371
      4 O          22.0395   71.8249   -3.7379 O.3     1  UNL1       -0.3112
      5 C          21.2776   71.1258   -2.7524 C.3     1  UNL1        0.1811
      6 C          18.4947   70.7669   -5.0004 C.3     1  UNL1        0.2383
      7 C          18.6024   69.3925   -4.2935 C.3     1  UNL1        0.1895
      8 O          17.3197   68.7756   -4.1773 O.3     1  UNL1       -0.3779
      9 C          19.1554   69.7861   -2.8991 C.3     1  UNL1        0.1713
     10 C          19.7953   71.1692   -3.1269 C.3     1  UNL1        0.1764
     11 O          19.6526   71.4840   -4.5225 O.3     1  UNL1       -0.3308
     12 O          18.0943   69.8696   -1.9452 O.3     1  UNL1       -0.3794
     13 H          17.4558   67.9282   -3.7314 H       1  UNL1        0.2106
     14 H          17.6970   68.9902   -1.8919 H       1  UNL1        0.2105
     15 N          18.5491   70.6088   -6.4542 N.ar    1  UNL1       -0.2551
     16 C          17.4096   70.4564   -7.1510 C.ar    1  UNL1        0.3323
     17 N          17.4294   70.3129   -8.4894 N.ar    1  UNL1       -0.2743
     18 C          18.6019   70.3105   -9.1552 C.ar    1  UNL1        0.2626
     19 C          19.8095   70.4641   -8.4334 C.ar    1  UNL1        0.0795
     20 C          19.7603   70.6115   -7.0921 C.ar    1  UNL1        0.0869
     21 O          16.3443   70.4564   -6.5648 O.2     1  UNL1       -0.2464
     22 O          18.6213   70.1761  -10.3647 O.2     1  UNL1       -0.2670
     23 H          16.5975   70.2088   -8.9765 H       1  UNL1        0.1734
     24 O          23.4195   72.6161   -1.6454 O.3     1  UNL1       -0.2703
     25 P          23.2064   74.2037   -1.7982 P.3     1  UNL1        0.2208
     26 O          22.3794   74.4774   -2.9941 O.2     1  UNL1       -0.5170
     27 O          24.6368   74.9249   -1.9594 O.3     1  UNL1       -0.4371
     28 O          22.4633   74.7751   -0.4898 O.3     1  UNL1       -0.2865
     29 C          21.1721   74.1652   -0.4469 C.3     1  UNL1        0.2611
     30 C          20.1109   75.2446   -0.2260 C.3     1  UNL1        0.1582
     31 C          20.4071   75.9774    1.0874 C.3     1  UNL1        0.1625
     32 C          20.5273   74.9416    2.2102 C.3     1  UNL1        0.1686
     33 C          21.5595   73.8866    1.8067 C.3     1  UNL1        0.1760
     34 O          19.3428   76.8845    1.3801 O.3     1  UNL1       -0.3801
     35 O          20.9474   75.5876    3.4134 O.3     1  UNL1       -0.3794
     36 O          21.1294   73.2204    0.6202 O.3     1  UNL1       -0.3263
     37 H          19.5701   77.3228    2.2117 H       1  UNL1        0.2105
     38 H          21.0109   74.9008    4.0922 H       1  UNL1        0.2105
     39 C          18.9916   76.6601   -1.8624 C.2     1  UNL1        0.2231
     40 C          19.0247   77.6406   -3.0068 C.3     1  UNL1        0.0946
     41 N          20.1425   76.1975   -1.3374 N.am    1  UNL1       -0.2994
     42 O          17.9285   76.2868   -1.4144 O.2     1  UNL1       -0.2751
     43 H          20.9934   76.4959   -1.6959 H       1  UNL1        0.1496
     44 C          21.7109   72.8650    2.9356 C.3     1  UNL1        0.1693
     45 O          20.5014   72.1149    3.0651 O.3     1  UNL1       -0.3794
     46 H          20.6388   71.4847    3.7852 H       1  UNL1        0.2105
@<TRIPOS>BOND
     1    29    30    1
     2    29    28    1
     3    29    36    1
     4    30    31    1
     5    30    41    1
     6    31    32    1
     7    31    34    1
     8    32    33    1
     9    32    35    1
    10    33    44    1
    11    33    36    1
    12    44    45    1
    13    39    40    1
    14    39    41   am
    15    39    42    2
    16    41    43    1
    17    28    25    1
    18    34    37    1
    19    35    38    1
    20    45    46    1
    21    15    16   ar
    22    15    20   ar
    23    15     6    1
    24    16    17   ar
    25    16    21    2
    26    17    18   ar
    27    17    23    1
    28    18    19   ar
    29    18    22    2
    30    19    20   ar
    31     6     7    1
    32     6    11    1
    33     7     8    1
    34     7     9    1
    35     8    13    1
    36     9    10    1
    37     9    12    1
    38    10    11    1
    39    10     5    1
    40    12    14    1
    41     5     4    1
    42     4     1    1
    43     1     2    2
    44     1     3    1
    45     1    24    1
    46    24    25    1
    47    25    26    2
    48    25    27    1
