@<TRIPOS>MOLECULE
UD2
 46 48 0 0 0
SMALL
GASTEIGER

@<TRIPOS>ATOM
      1 P          21.0706   71.8577   -2.5428 P.3     1  UNL1        0.2189
      2 O          21.7795   70.5698   -3.1987 O.3     1  UNL1       -0.4371
      3 O          21.1012   72.9817   -3.5043 O.2     1  UNL1       -0.5170
      4 O          19.5420   71.5025   -2.1808 O.3     1  UNL1       -0.3112
      5 C          18.9453   70.2397   -2.4820 C.3     1  UNL1        0.1811
      6 C          17.1715   70.4229   -5.6055 C.3     1  UNL1        0.2383
      7 C          16.9766   68.9601   -5.1319 C.3     1  UNL1        0.1895
      8 O          15.7232   68.4413   -5.5809 O.3     1  UNL1       -0.3779
      9 C          16.9913   69.1124   -3.5911 C.3     1  UNL1        0.1713
     10 C          17.7051   70.4566   -3.3524 C.3     1  UNL1        0.1764
     11 O          18.0931   70.9691   -4.6371 O.3     1  UNL1       -0.3308
     12 O          15.6575   69.1564   -3.0814 O.3     1  UNL1       -0.3794
     13 H          15.5553   67.5285   -5.3102 H       1  UNL1        0.2106
     14 H          15.1423   68.3572   -3.2560 H       1  UNL1        0.2105
     15 N          17.7540   70.4568   -6.9489 N.ar    1  UNL1       -0.2551
     16 C          16.9479   70.4409   -8.0254 C.ar    1  UNL1        0.3323
     17 N          17.4558   70.4711   -9.2717 N.ar    1  UNL1       -0.2743
     18 C          18.7903   70.5199   -9.4598 C.ar    1  UNL1        0.2626
     19 C          19.6505   70.5383   -8.3356 C.ar    1  UNL1        0.0795
     20 C          19.1138   70.5114   -7.0976 C.ar    1  UNL1        0.0869
     21 O          15.7427   70.3971   -7.8708 O.2     1  UNL1       -0.2464
     22 O          19.2512   70.5477  -10.5873 O.2     1  UNL1       -0.2670
     23 H          16.8604   70.4577  -10.0369 H       1  UNL1        0.1734
     24 O          21.8555   72.2775   -1.2008 O.3     1  UNL1       -0.2703
     25 P          22.1830   71.5248    0.1845 P.3     1  UNL1        0.2208
     26 O          21.0668   70.3966    0.4586 O.3     1  UNL1       -0.4371
     27 O          23.5156   70.8885    0.0975 O.2     1  UNL1       -0.5170
     28 O          22.1750   72.5922    1.3901 O.3     1  UNL1       -0.2865
     29 C          22.9346   73.8019    1.3637 C.3     1  UNL1        0.2611
     30 C          23.8986   73.8264    2.5523 C.3     1  UNL1        0.1582
     31 C          23.0911   73.8125    3.8539 C.3     1  UNL1        0.1625
     32 C          22.1320   75.0061    3.8597 C.3     1  UNL1        0.1686
     33 C          21.2358   74.9361    2.6204 C.3     1  UNL1        0.1760
     34 O          23.9808   73.9093    4.9685 O.3     1  UNL1       -0.3801
     35 O          22.8822   76.2218    3.8393 O.3     1  UNL1       -0.3794
     36 O          22.0500   74.9213    1.4461 O.3     1  UNL1       -0.3263
     37 H          23.5364   73.9054    5.8274 H       1  UNL1        0.2105
     38 H          22.3373   77.0211    3.8410 H       1  UNL1        0.2105
     39 C          26.0847   72.7696    2.7571 C.2     1  UNL1        0.2231
     40 C          26.9782   71.5581    2.7061 C.3     1  UNL1        0.0946
     41 N          24.7671   72.6475    2.5023 N.am    1  UNL1       -0.2994
     42 O          26.5512   73.8566    3.0276 O.2     1  UNL1       -0.2751
     43 H          24.3939   71.7788    2.2850 H       1  UNL1        0.1496
     44 C          20.3150   76.1573    2.5876 C.3     1  UNL1        0.1693
     45 O          20.9527   77.2166    1.8711 O.3     1  UNL1       -0.3794
     46 H          20.4250   78.0246    1.8104 H       1  UNL1        0.2105
@<TRIPOS>BOND
     1    29    30    1
     2    30    41    1
     3    30    31    1
     4    31    34    1
     5    31    32    1
     6    32    35    1
     7    32    33    1
     8    33    36    1
     9    33    44    1
    10    39    40    1
    11    39    42    2
    12    39    41   am
    13    41    43    1
    14    29    28    1
    15    34    37    1
    16    35    38    1
    17    29    36    1
    18    44    45    1
    19    45    46    1
    20    15     6    1
    21    15    16   ar
    22    16    21    2
    23    16    17   ar
    24    17    23    1
    25    17    18   ar
    26    18    19   ar
    27    19    20   ar
    28    15    20   ar
    29    18    22    2
    30     6     7    1
    31     6    11    1
    32     7     9    1
    33     7     8    1
    34     8    13    1
    35     9    10    1
    36     9    12    1
    37    10     5    1
    38    10    11    1
    39    12    14    1
    40     5     4    1
    41     4     1    1
    42     1     2    1
    43     1    24    1
    44     1     3    2
    45    24    25    1
    46    28    25    1
    47    25    26    1
    48    25    27    2
@<TRIPOS>MOLECULE
UD2
 46 48 0 0 0
SMALL
GASTEIGER

@<TRIPOS>ATOM
      1 P          21.0643   71.8320   -2.3867 P.3     1  UNL1        0.2189
      2 O          21.7015   70.3903   -2.7134 O.3     1  UNL1       -0.4371
      3 O          21.5878   72.8317   -3.3435 O.2     1  UNL1       -0.5170
      4 O          19.4611   71.7520   -2.5175 O.3     1  UNL1       -0.3112
      5 C          18.7379   70.5207   -2.4694 C.3     1  UNL1        0.1811
      6 C          17.0553   70.4596   -5.6477 C.3     1  UNL1        0.2383
      7 C          16.9543   69.0039   -5.1253 C.3     1  UNL1        0.1895
      8 O          15.7577   68.3768   -5.5906 O.3     1  UNL1       -0.3779
      9 C          16.9089   69.2112   -3.5916 C.3     1  UNL1        0.1713
     10 C          17.5132   70.6129   -3.3830 C.3     1  UNL1        0.1764
     11 O          17.9027   71.1074   -4.6742 O.3     1  UNL1       -0.3308
     12 O          15.5600   69.1728   -3.1227 O.3     1  UNL1       -0.3794
     13 H          15.6494   67.4642   -5.2908 H       1  UNL1        0.2106
     14 H          15.1112   68.3316   -3.2820 H       1  UNL1        0.2105
     15 N          17.6759   70.4898   -6.9740 N.ar    1  UNL1       -0.2551
     16 C          16.9009   70.4731   -8.0730 C.ar    1  UNL1        0.3323
     17 N          17.4442   70.4999   -9.3044 N.ar    1  UNL1       -0.2743
     18 C          18.7836   70.5460   -9.4544 C.ar    1  UNL1        0.2626
     19 C          19.6114   70.5650   -8.3061 C.ar    1  UNL1        0.0795
     20 C          19.0395   70.5416   -7.0839 C.ar    1  UNL1        0.0869
     21 O          15.6917   70.4318   -7.9528 O.2     1  UNL1       -0.2464
     22 O          19.2766   70.5706  -10.5683 O.2     1  UNL1       -0.2670
     23 H          16.8709   70.4861  -10.0862 H       1  UNL1        0.1734
     24 O          21.4587   72.2661   -0.8870 O.3     1  UNL1       -0.2703
     25 P          22.3439   71.5903    0.2761 P.3     1  UNL1        0.2208
     26 O          21.5327   70.3565    0.9190 O.3     1  UNL1       -0.4371
     27 O          23.6170   71.0989   -0.2950 O.2     1  UNL1       -0.5170
     28 O          22.6537   72.6826    1.4178 O.3     1  UNL1       -0.2865
     29 C          22.8750   72.3370    2.7863 C.3     1  UNL1        0.2611
     30 C          22.5418   73.5363    3.6769 C.3     1  UNL1        0.1582
     31 C          23.4828   74.6947    3.3318 C.3     1  UNL1        0.1625
     32 C          24.9315   74.2296    3.5026 C.3     1  UNL1        0.1686
     33 C          25.1727   73.0032    2.6185 C.3     1  UNL1        0.1760
     34 O          23.2276   75.7943    4.2087 O.3     1  UNL1       -0.3801
     35 O          25.1650   73.8867    4.8698 O.3     1  UNL1       -0.3794
     36 O          24.2451   71.9746    2.9701 O.3     1  UNL1       -0.3263
     37 H          23.7887   76.5650    4.0459 H       1  UNL1        0.2105
     38 H          26.0651   73.5819    5.0514 H       1  UNL1        0.2105
     39 C          20.3675   74.2796    4.4879 C.2     1  UNL1        0.2231
     40 C          18.9413   74.7021    4.2511 C.3     1  UNL1        0.0946
     41 N          21.1545   73.9470    3.4458 N.am    1  UNL1       -0.2994
     42 O          20.8086   74.2386    5.6175 O.2     1  UNL1       -0.2751
     43 H          20.8020   73.9787    2.5426 H       1  UNL1        0.1496
     44 C          26.6007   72.4962    2.8285 C.3     1  UNL1        0.1693
     45 O          26.6561   71.0961    2.5475 O.3     1  UNL1       -0.3794
     46 H          27.5337   70.7061    2.6603 H       1  UNL1        0.2105
@<TRIPOS>BOND
     1    29    30    1
     2    30    41    1
     3    30    31    1
     4    31    34    1
     5    31    32    1
     6    32    35    1
     7    32    33    1
     8    33    36    1
     9    33    44    1
    10    39    40    1
    11    39    42    2
    12    39    41   am
    13    41    43    1
    14    29    28    1
    15    34    37    1
    16    35    38    1
    17    29    36    1
    18    44    45    1
    19    45    46    1
    20    15     6    1
    21    15    16   ar
    22    16    21    2
    23    16    17   ar
    24    17    23    1
    25    17    18   ar
    26    18    19   ar
    27    19    20   ar
    28    15    20   ar
    29    18    22    2
    30     6     7    1
    31     6    11    1
    32     7     9    1
    33     7     8    1
    34     8    13    1
    35     9    10    1
    36     9    12    1
    37    10     5    1
    38    10    11    1
    39    12    14    1
    40     5     4    1
    41     4     1    1
    42     1     2    1
    43     1    24    1
    44     1     3    2
    45    24    25    1
    46    28    25    1
    47    25    26    1
    48    25    27    2
@<TRIPOS>MOLECULE
UD2
 46 48 0 0 0
SMALL
GASTEIGER

@<TRIPOS>ATOM
      1 P          21.4686   71.0608   -0.1479 P.3     1  UNL1        0.2189
      2 O          21.7116   70.0953    1.1171 O.3     1  UNL1       -0.4371
      3 O          20.2085   70.6815   -0.8240 O.2     1  UNL1       -0.5170
      4 O          21.3700   72.5879    0.3539 O.3     1  UNL1       -0.3112
      5 C          21.2350   72.9465    1.7303 C.3     1  UNL1        0.1811
      6 C          24.5949   74.0362    2.4085 C.3     1  UNL1        0.2383
      7 C          24.3981   74.2996    0.8939 C.3     1  UNL1        0.1895
      8 O          25.1707   75.4232    0.4669 O.3     1  UNL1       -0.3779
      9 C          22.8829   74.6077    0.8116 C.3     1  UNL1        0.1713
     10 C          22.3013   73.9827    2.0940 C.3     1  UNL1        0.1764
     11 O          23.3851   73.3454    2.7889 O.3     1  UNL1       -0.3308
     12 O          22.6609   76.0188    0.7973 O.3     1  UNL1       -0.3794
     13 H          25.0814   75.6276   -0.4738 H       1  UNL1        0.2106
     14 H          23.0570   76.4725    0.0411 H       1  UNL1        0.2105
     15 N          25.7671   73.1882    2.6365 N.ar    1  UNL1       -0.2551
     16 C          25.7483   71.9040    2.2376 C.ar    1  UNL1        0.3323
     17 N          26.8112   71.1017    2.4344 N.ar    1  UNL1       -0.2743
     18 C          27.9191   71.5787    3.0374 C.ar    1  UNL1        0.2626
     19 C          27.9531   72.9289    3.4615 C.ar    1  UNL1        0.0795
     20 C          26.8747   73.7117    3.2475 C.ar    1  UNL1        0.0869
     21 O          24.7561   71.4604    1.6924 O.2     1  UNL1       -0.2464
     22 O          28.8820   70.8538    3.2158 O.2     1  UNL1       -0.2670
     23 H          26.7805   70.1779    2.1417 H       1  UNL1        0.1734
     24 O          22.6967   70.9138   -1.1792 O.3     1  UNL1       -0.2703
     25 P          23.0380   71.5662   -2.6113 P.3     1  UNL1        0.2208
     26 O          23.2440   73.1544   -2.4416 O.3     1  UNL1       -0.4371
     27 O          24.2785   70.9628   -3.1456 O.2     1  UNL1       -0.5170
     28 O          21.8231   71.2881   -3.6309 O.3     1  UNL1       -0.2865
     29 C          20.8167   72.2583   -3.9257 C.3     1  UNL1        0.2611
     30 C          19.5723   71.5543   -4.4720 C.3     1  UNL1        0.1582
     31 C          19.9313   70.8441   -5.7809 C.3     1  UNL1        0.1625
     32 C          20.4979   71.8694   -6.7668 C.3     1  UNL1        0.1686
     33 C          21.7070   72.5614   -6.1318 C.3     1  UNL1        0.1760
     34 O          18.7581   70.2452   -6.3362 O.3     1  UNL1       -0.3801
     35 O          19.4968   72.8417   -7.0729 O.3     1  UNL1       -0.3794
     36 O          21.3117   73.1754   -4.9036 O.3     1  UNL1       -0.3263
     37 H          18.9124   69.7764   -7.1679 H       1  UNL1        0.2105
     38 H          19.7875   73.5247   -7.6932 H       1  UNL1        0.2105
     39 C          17.7762   70.4050   -3.2927 C.2     1  UNL1        0.2231
     40 C          17.2879   69.3938   -2.2889 C.3     1  UNL1        0.0946
     41 N          19.0982   70.5706   -3.4953 N.am    1  UNL1       -0.2994
     42 O          16.9791   71.0713   -3.9196 O.2     1  UNL1       -0.2751
     43 H          19.7357   70.0388   -2.9935 H       1  UNL1        0.1496
     44 C          22.2428   73.6295   -7.0871 C.3     1  UNL1        0.1693
     45 O          23.2480   73.0577   -7.9267 O.3     1  UNL1       -0.3794
     46 H          23.6332   73.6794   -8.5593 H       1  UNL1        0.2105
@<TRIPOS>BOND
     1    29    30    1
     2    30    41    1
     3    30    31    1
     4    31    34    1
     5    31    32    1
     6    32    35    1
     7    32    33    1
     8    33    36    1
     9    33    44    1
    10    39    40    1
    11    39    42    2
    12    39    41   am
    13    41    43    1
    14    29    28    1
    15    34    37    1
    16    35    38    1
    17    29    36    1
    18    44    45    1
    19    45    46    1
    20    15     6    1
    21    15    16   ar
    22    16    21    2
    23    16    17   ar
    24    17    23    1
    25    17    18   ar
    26    18    19   ar
    27    19    20   ar
    28    15    20   ar
    29    18    22    2
    30     6     7    1
    31     6    11    1
    32     7     9    1
    33     7     8    1
    34     8    13    1
    35     9    10    1
    36     9    12    1
    37    10     5    1
    38    10    11    1
    39    12    14    1
    40     5     4    1
    41     4     1    1
    42     1     2    1
    43     1    24    1
    44     1     3    2
    45    24    25    1
    46    28    25    1
    47    25    26    1
    48    25    27    2
@<TRIPOS>MOLECULE
UD2
 46 48 0 0 0
SMALL
GASTEIGER

@<TRIPOS>ATOM
      1 P          21.8137   72.8936   -6.2171 P.3     1  UNL1        0.2189
      2 O          23.1431   72.3719   -6.9599 O.3     1  UNL1       -0.4371
      3 O          21.7515   74.3698   -6.2946 O.2     1  UNL1       -0.5170
      4 O          20.5164   72.2634   -6.9337 O.3     1  UNL1       -0.3112
      5 C          20.5971   71.4165   -8.0816 C.3     1  UNL1        0.1811
      6 C          17.4469   70.1536   -6.8909 C.3     1  UNL1        0.2383
      7 C          17.0664   71.1652   -8.0017 C.3     1  UNL1        0.1895
      8 O          15.8554   70.7763   -8.6529 O.3     1  UNL1       -0.3779
      9 C          18.2721   71.0569   -8.9672 C.3     1  UNL1        0.1713
     10 C          19.3982   70.4650   -8.0983 C.3     1  UNL1        0.1764
     11 O          18.8771   70.3120   -6.7684 O.3     1  UNL1       -0.3308
     12 O          17.9646   70.1811  -10.0530 O.3     1  UNL1       -0.3794
     13 H          15.5755   71.3783   -9.3556 H       1  UNL1        0.2106
     14 H          17.2234   70.4756  -10.5992 H       1  UNL1        0.2105
     15 N          16.7799   70.4944   -5.6323 N.ar    1  UNL1       -0.2551
     16 C          16.4615   69.5201   -4.7617 C.ar    1  UNL1        0.3323
     17 N          15.8481   69.8044   -3.5976 N.ar    1  UNL1       -0.2743
     18 C          15.5436   71.0804   -3.2849 C.ar    1  UNL1        0.2626
     19 C          15.8739   72.1161   -4.1916 C.ar    1  UNL1        0.0795
     20 C          16.4925   71.8027   -5.3495 C.ar    1  UNL1        0.0869
     21 O          16.7303   68.3651   -5.0305 O.2     1  UNL1       -0.2464
     22 O          14.9888   71.3391   -2.2314 O.2     1  UNL1       -0.2670
     23 H          15.6245   69.0897   -2.9817 H       1  UNL1        0.1734
     24 O          21.8475   72.4379   -4.6729 O.3     1  UNL1       -0.2703
     25 P          22.9363   72.5653   -3.4934 P.3     1  UNL1        0.2208
     26 O          22.8513   71.2680   -2.5428 O.3     1  UNL1       -0.4371
     27 O          24.2911   72.6583   -4.0801 O.2     1  UNL1       -0.5170
     28 O          22.6349   73.8877   -2.6255 O.3     1  UNL1       -0.2865
     29 C          21.6331   73.9396   -1.6082 C.3     1  UNL1        0.2611
     30 C          21.3247   72.5216   -1.1216 C.3     1  UNL1        0.1582
     31 C          20.7620   71.7022   -2.2870 C.3     1  UNL1        0.1625
     32 C          19.5216   72.4082   -2.8414 C.3     1  UNL1        0.1686
     33 C          19.8996   73.8309   -3.2619 C.3     1  UNL1        0.1760
     34 O          20.4026   70.3984   -1.8241 O.3     1  UNL1       -0.3801
     35 O          18.5109   72.4603   -1.8329 O.3     1  UNL1       -0.3794
     36 O          20.4446   74.5285   -2.1401 O.3     1  UNL1       -0.3263
     37 H          20.0389   69.8238   -2.5116 H       1  UNL1        0.2105
     38 H          17.6947   72.8962   -2.1153 H       1  UNL1        0.2105
     39 C          22.5389   71.1861    0.5155 C.2     1  UNL1        0.2231
     40 C          23.8027   70.5408    1.0205 C.3     1  UNL1        0.0946
     41 N          22.5545   71.8944   -0.6308 N.am    1  UNL1       -0.2994
     42 O          21.5058   71.0684    1.1408 O.2     1  UNL1       -0.2751
     43 H          23.3805   71.9896   -1.1306 H       1  UNL1        0.1496
     44 C          18.6527   74.5631   -3.7615 C.3     1  UNL1        0.1693
     45 O          18.4975   75.7874   -3.0408 O.3     1  UNL1       -0.3794
     46 H          17.7250   76.3052   -3.3058 H       1  UNL1        0.2105
@<TRIPOS>BOND
     1    29    30    1
     2    30    41    1
     3    30    31    1
     4    31    34    1
     5    31    32    1
     6    32    35    1
     7    32    33    1
     8    33    36    1
     9    33    44    1
    10    39    40    1
    11    39    42    2
    12    39    41   am
    13    41    43    1
    14    29    28    1
    15    34    37    1
    16    35    38    1
    17    29    36    1
    18    44    45    1
    19    45    46    1
    20    15     6    1
    21    15    16   ar
    22    16    21    2
    23    16    17   ar
    24    17    23    1
    25    17    18   ar
    26    18    19   ar
    27    19    20   ar
    28    15    20   ar
    29    18    22    2
    30     6     7    1
    31     6    11    1
    32     7     9    1
    33     7     8    1
    34     8    13    1
    35     9    10    1
    36     9    12    1
    37    10     5    1
    38    10    11    1
    39    12    14    1
    40     5     4    1
    41     4     1    1
    42     1     2    1
    43     1    24    1
    44     1     3    2
    45    24    25    1
    46    28    25    1
    47    25    26    1
    48    25    27    2
@<TRIPOS>MOLECULE
UD2
 46 48 0 0 0
SMALL
GASTEIGER

@<TRIPOS>ATOM
      1 P          23.4720   72.0475   -3.2416 P.3     1  UNL1        0.2189
      2 O          24.1848   72.8499   -4.4413 O.3     1  UNL1       -0.4371
      3 O          24.1738   70.7640   -3.0204 O.2     1  UNL1       -0.5170
      4 O          23.5312   72.9305   -1.8960 O.3     1  UNL1       -0.3112
      5 C          22.4524   72.9962   -0.9615 C.3     1  UNL1        0.1811
      6 C          24.1824   71.7102    1.9177 C.3     1  UNL1        0.2383
      7 C          23.0420   72.5801    2.5047 C.3     1  UNL1        0.1895
      8 O          22.6047   72.0658    3.7640 O.3     1  UNL1       -0.3779
      9 C          21.9347   72.4314    1.4327 C.3     1  UNL1        0.1713
     10 C          22.6933   71.9900    0.1665 C.3     1  UNL1        0.1764
     11 O          24.0907   71.9512    0.4967 O.3     1  UNL1       -0.3308
     12 O          20.9915   71.4327    1.8249 O.3     1  UNL1       -0.3794
     13 H          21.8923   72.5766    4.1718 H       1  UNL1        0.2106
     14 H          20.5268   71.6316    2.6489 H       1  UNL1        0.2105
     15 N          25.4819   72.1472    2.4327 N.ar    1  UNL1       -0.2551
     16 C          25.6495   73.4237    2.8216 C.ar    1  UNL1        0.3323
     17 N          26.8329   73.8530    3.2986 N.ar    1  UNL1       -0.2743
     18 C          27.8745   73.0020    3.3957 C.ar    1  UNL1        0.2626
     19 C          27.7119   71.6552    2.9908 C.ar    1  UNL1        0.0795
     20 C          26.5132   71.2512    2.5204 C.ar    1  UNL1        0.0869
     21 O          24.7190   74.2020    2.7398 O.2     1  UNL1       -0.2464
     22 O          28.9460   73.3891    3.8276 O.2     1  UNL1       -0.2670
     23 H          26.9370   74.7770    3.5735 H       1  UNL1        0.1734
     24 O          21.9350   71.7598   -3.6267 O.3     1  UNL1       -0.2703
     25 P          20.9839   72.2137   -4.8442 P.3     1  UNL1        0.2208
     26 O          20.9251   73.8218   -4.9079 O.3     1  UNL1       -0.4371
     27 O          21.5269   71.6897   -6.1166 O.2     1  UNL1       -0.5170
     28 O          19.5009   71.6308   -4.6126 O.3     1  UNL1       -0.2865
     29 C          19.1521   70.2682   -4.8635 C.3     1  UNL1        0.2611
     30 C          18.1622   70.2002   -6.0289 C.3     1  UNL1        0.1582
     31 C          16.8805   70.9450   -5.6430 C.3     1  UNL1        0.1625
     32 C          16.3115   70.3297   -4.3615 C.3     1  UNL1        0.1686
     33 C          17.3730   70.3928   -3.2601 C.3     1  UNL1        0.1760
     34 O          15.9225   70.8240   -6.6970 O.3     1  UNL1       -0.3801
     35 O          15.9539   68.9678   -4.6035 O.3     1  UNL1       -0.3794
     36 O          18.5496   69.7082   -3.6949 O.3     1  UNL1       -0.3263
     37 H          15.0849   71.2737   -6.5201 H       1  UNL1        0.2105
     38 H          15.5860   68.5141   -3.8323 H       1  UNL1        0.2105
     39 C          18.5802   70.2743   -8.4284 C.2     1  UNL1        0.2231
     40 C          19.1898   70.9190   -9.6455 C.3     1  UNL1        0.0946
     41 N          18.7557   70.8278   -7.2123 N.am    1  UNL1       -0.2994
     42 O          17.9306   69.2559   -8.5424 O.2     1  UNL1       -0.2751
     43 H          19.2759   71.6415   -7.1206 H       1  UNL1        0.1496
     44 C          16.8334   69.7261   -1.9933 C.3     1  UNL1        0.1693
     45 O          17.0890   68.3211   -2.0477 O.3     1  UNL1       -0.3794
     46 H          16.7730   67.8331   -1.2750 H       1  UNL1        0.2105
@<TRIPOS>BOND
     1    29    30    1
     2    30    41    1
     3    30    31    1
     4    31    34    1
     5    31    32    1
     6    32    35    1
     7    32    33    1
     8    33    36    1
     9    33    44    1
    10    39    40    1
    11    39    42    2
    12    39    41   am
    13    41    43    1
    14    29    28    1
    15    34    37    1
    16    35    38    1
    17    29    36    1
    18    44    45    1
    19    45    46    1
    20    15     6    1
    21    15    16   ar
    22    16    21    2
    23    16    17   ar
    24    17    23    1
    25    17    18   ar
    26    18    19   ar
    27    19    20   ar
    28    15    20   ar
    29    18    22    2
    30     6     7    1
    31     6    11    1
    32     7     9    1
    33     7     8    1
    34     8    13    1
    35     9    10    1
    36     9    12    1
    37    10     5    1
    38    10    11    1
    39    12    14    1
    40     5     4    1
    41     4     1    1
    42     1     2    1
    43     1    24    1
    44     1     3    2
    45    24    25    1
    46    28    25    1
    47    25    26    1
    48    25    27    2
@<TRIPOS>MOLECULE
UD2
 46 48 0 0 0
SMALL
GASTEIGER

@<TRIPOS>ATOM
      1 P          20.6769   71.6637   -2.4001 P.3     1  UNL1        0.2189
      2 O          21.9496   70.9701   -3.1005 O.3     1  UNL1       -0.4371
      3 O          20.8000   73.1348   -2.4980 O.2     1  UNL1       -0.5170
      4 O          19.3298   71.1872   -3.1431 O.3     1  UNL1       -0.3112
      5 C          18.0898   70.9987   -2.4588 C.3     1  UNL1        0.1811
      6 C          16.7407   70.5490   -5.7624 C.3     1  UNL1        0.2383
      7 C          16.7751   69.1223   -5.1580 C.3     1  UNL1        0.1895
      8 O          15.7176   68.3191   -5.6855 O.3     1  UNL1       -0.3779
      9 C          16.5571   69.4021   -3.6508 C.3     1  UNL1        0.1713
     10 C          16.9565   70.8804   -3.4807 C.3     1  UNL1        0.1764
     11 O          17.4022   71.3533   -4.7618 O.3     1  UNL1       -0.3308
     12 O          15.1853   69.2108   -3.3012 O.3     1  UNL1       -0.3794
     13 H          15.6974   67.4172   -5.3380 H       1  UNL1        0.2106
     14 H          14.8639   68.3105   -3.4447 H       1  UNL1        0.2105
     15 N          17.4767   70.5910   -7.0279 N.ar    1  UNL1       -0.2551
     16 C          16.8028   70.5725   -8.1917 C.ar    1  UNL1        0.3323
     17 N          17.4534   70.6099   -9.3696 N.ar    1  UNL1       -0.2743
     18 C          18.8003   70.6687   -9.3995 C.ar    1  UNL1        0.2626
     19 C          19.5223   70.6899   -8.1820 C.ar    1  UNL1        0.0795
     20 C          18.8441   70.6556   -7.0157 C.ar    1  UNL1        0.0869
     21 O          15.5881   70.5197   -8.1799 O.2     1  UNL1       -0.2464
     22 O          19.3903   70.7030  -10.4650 O.2     1  UNL1       -0.2670
     23 H          16.9521   70.5946  -10.1995 H       1  UNL1        0.1734
     24 O          20.6154   71.2318   -0.8500 O.3     1  UNL1       -0.2703
     25 P          21.5977   71.4413    0.4086 P.3     1  UNL1        0.2208
     26 O          21.7089   70.0646    1.2370 O.3     1  UNL1       -0.4371
     27 O          22.9395   71.8363   -0.0729 O.2     1  UNL1       -0.5170
     28 O          21.0080   72.5963    1.3631 O.3     1  UNL1       -0.2865
     29 C          21.7072   73.8116    1.6376 C.3     1  UNL1        0.2611
     30 C          23.1605   73.6808    1.1758 C.3     1  UNL1        0.1582
     31 C          23.8413   72.5628    1.9714 C.3     1  UNL1        0.1625
     32 C          23.7332   72.8758    3.4663 C.3     1  UNL1        0.1686
     33 C          22.2573   73.0376    3.8399 C.3     1  UNL1        0.1760
     34 O          25.2190   72.4826    1.5987 O.3     1  UNL1       -0.3801
     35 O          24.4344   74.0873    3.7525 O.3     1  UNL1       -0.3794
     36 O          21.6764   74.0715    3.0426 O.3     1  UNL1       -0.3263
     37 H          25.7125   71.7934    2.0641 H       1  UNL1        0.2105
     38 H          24.4072   74.3477    4.6839 H       1  UNL1        0.2105
     39 C          23.8416   74.1636   -1.1135 C.2     1  UNL1        0.2231
     40 C          23.8754   73.8294   -2.5817 C.3     1  UNL1        0.0946
     41 N          23.1928   73.3552   -0.2522 N.am    1  UNL1       -0.2994
     42 O          24.3986   75.1612   -0.7053 O.2     1  UNL1       -0.2751
     43 H          22.7465   72.5580   -0.5783 H       1  UNL1        0.1496
     44 C          22.1438   73.4095    5.3195 C.3     1  UNL1        0.1693
     45 O          22.8410   74.6339    5.5585 O.3     1  UNL1       -0.3794
     46 H          22.8112   74.9311    6.4782 H       1  UNL1        0.2105
@<TRIPOS>BOND
     1    29    30    1
     2    30    41    1
     3    30    31    1
     4    31    34    1
     5    31    32    1
     6    32    35    1
     7    32    33    1
     8    33    36    1
     9    33    44    1
    10    39    40    1
    11    39    42    2
    12    39    41   am
    13    41    43    1
    14    29    28    1
    15    34    37    1
    16    35    38    1
    17    29    36    1
    18    44    45    1
    19    45    46    1
    20    15     6    1
    21    15    16   ar
    22    16    21    2
    23    16    17   ar
    24    17    23    1
    25    17    18   ar
    26    18    19   ar
    27    19    20   ar
    28    15    20   ar
    29    18    22    2
    30     6     7    1
    31     6    11    1
    32     7     9    1
    33     7     8    1
    34     8    13    1
    35     9    10    1
    36     9    12    1
    37    10     5    1
    38    10    11    1
    39    12    14    1
    40     5     4    1
    41     4     1    1
    42     1     2    1
    43     1    24    1
    44     1     3    2
    45    24    25    1
    46    28    25    1
    47    25    26    1
    48    25    27    2
@<TRIPOS>MOLECULE
UD2
 46 48 0 0 0
SMALL
GASTEIGER

@<TRIPOS>ATOM
      1 P          20.7298   71.2738   -2.5029 P.3     1  UNL1        0.2189
      2 O          20.5650   70.5329   -1.0833 O.3     1  UNL1       -0.4371
      3 O          21.6397   70.4896   -3.3666 O.2     1  UNL1       -0.5170
      4 O          19.2899   71.3982   -3.2135 O.3     1  UNL1       -0.3112
      5 C          18.0596   71.1835   -2.5193 C.3     1  UNL1        0.1811
      6 C          16.7313   70.5410   -5.7995 C.3     1  UNL1        0.2383
      7 C          16.8320   69.1425   -5.1390 C.3     1  UNL1        0.1895
      8 O          15.8125   68.2710   -5.6319 O.3     1  UNL1       -0.3779
      9 C          16.6019   69.4717   -3.6436 C.3     1  UNL1        0.1713
     10 C          16.9325   70.9724   -3.5332 C.3     1  UNL1        0.1764
     11 O          17.3552   71.4141   -4.8331 O.3     1  UNL1       -0.3308
     12 O          15.2406   69.2311   -3.2836 O.3     1  UNL1       -0.3794
     13 H          15.8343   67.3836   -5.2488 H       1  UNL1        0.2106
     14 H          14.9611   68.3119   -3.3906 H       1  UNL1        0.2105
     15 N          17.4640   70.5667   -7.0673 N.ar    1  UNL1       -0.2551
     16 C          16.7859   70.5895   -8.2286 C.ar    1  UNL1        0.3323
     17 N          17.4334   70.6132   -9.4086 N.ar    1  UNL1       -0.2743
     18 C          18.7815   70.6162   -9.4431 C.ar    1  UNL1        0.2626
     19 C          19.5080   70.5933   -8.2283 C.ar    1  UNL1        0.0795
     20 C          18.8329   70.5741   -7.0598 C.ar    1  UNL1        0.0869
     21 O          15.5701   70.5874   -8.2126 O.2     1  UNL1       -0.2464
     22 O          19.3687   70.6380  -10.5105 O.2     1  UNL1       -0.2670
     23 H          16.9290   70.6283  -10.2366 H       1  UNL1        0.1734
     24 O          21.3428   72.7450   -2.2729 O.3     1  UNL1       -0.2703
     25 P          20.6996   74.1878   -1.9604 P.3     1  UNL1        0.2208
     26 O          21.6415   75.3396   -2.5767 O.3     1  UNL1       -0.4371
     27 O          19.3550   74.2715   -2.5715 O.2     1  UNL1       -0.5170
     28 O          20.5790   74.3878   -0.3673 O.3     1  UNL1       -0.2865
     29 C          19.7050   73.6084    0.4512 C.3     1  UNL1        0.2611
     30 C          19.1611   74.4759    1.5889 C.3     1  UNL1        0.1582
     31 C          20.3271   74.9422    2.4661 C.3     1  UNL1        0.1625
     32 C          21.0855   73.7164    2.9824 C.3     1  UNL1        0.1686
     33 C          21.5554   72.8780    1.7907 C.3     1  UNL1        0.1760
     34 O          19.8214   75.6921    3.5730 O.3     1  UNL1       -0.3801
     35 O          20.2215   72.9326    3.8073 O.3     1  UNL1       -0.3794
     36 O          20.4261   72.5030    0.9993 O.3     1  UNL1       -0.3263
     37 H          20.5068   76.0201    4.1712 H       1  UNL1        0.2105
     38 H          20.6369   72.1375    4.1694 H       1  UNL1        0.2105
     39 C          17.3101   76.0605    1.5668 C.2     1  UNL1        0.2231
     40 C          16.6019   77.2591    0.9920 C.3     1  UNL1        0.0946
     41 N          18.4728   75.6418    1.0291 N.am    1  UNL1       -0.2994
     42 O          16.8339   75.4711    2.5144 O.2     1  UNL1       -0.2751
     43 H          18.8533   76.1121    0.2708 H       1  UNL1        0.1496
     44 C          22.2623   71.6202    2.2993 C.3     1  UNL1        0.1693
     45 O          21.9193   70.5104    1.4669 O.3     1  UNL1       -0.3794
     46 H          22.3327   69.6772    1.7312 H       1  UNL1        0.2105
@<TRIPOS>BOND
     1    29    30    1
     2    30    41    1
     3    30    31    1
     4    31    34    1
     5    31    32    1
     6    32    35    1
     7    32    33    1
     8    33    36    1
     9    33    44    1
    10    39    40    1
    11    39    42    2
    12    39    41   am
    13    41    43    1
    14    29    28    1
    15    34    37    1
    16    35    38    1
    17    29    36    1
    18    44    45    1
    19    45    46    1
    20    15     6    1
    21    15    16   ar
    22    16    21    2
    23    16    17   ar
    24    17    23    1
    25    17    18   ar
    26    18    19   ar
    27    19    20   ar
    28    15    20   ar
    29    18    22    2
    30     6     7    1
    31     6    11    1
    32     7     9    1
    33     7     8    1
    34     8    13    1
    35     9    10    1
    36     9    12    1
    37    10     5    1
    38    10    11    1
    39    12    14    1
    40     5     4    1
    41     4     1    1
    42     1     2    1
    43     1    24    1
    44     1     3    2
    45    24    25    1
    46    28    25    1
    47    25    26    1
    48    25    27    2
@<TRIPOS>MOLECULE
UD2
 46 48 0 0 0
SMALL
GASTEIGER

@<TRIPOS>ATOM
      1 P          20.4333   72.0804   -3.3679 P.3     1  UNL1        0.2189
      2 O          20.5650   72.4067   -4.9388 O.3     1  UNL1       -0.4371
      3 O          20.1665   73.3313   -2.6243 O.2     1  UNL1       -0.5170
      4 O          19.2195   71.0479   -3.1344 O.3     1  UNL1       -0.3112
      5 C          17.9536   71.4440   -2.6035 C.3     1  UNL1        0.1811
      6 C          16.6990   70.5368   -5.8500 C.3     1  UNL1        0.2383
      7 C          16.8710   69.1872   -5.1075 C.3     1  UNL1        0.1895
      8 O          15.9075   68.2320   -5.5558 O.3     1  UNL1       -0.3779
      9 C          16.6066   69.5895   -3.6359 C.3     1  UNL1        0.1713
     10 C          16.8511   71.1104   -3.6116 C.3     1  UNL1        0.1764
     11 O          17.2625   71.4988   -4.9320 O.3     1  UNL1       -0.3308
     12 O          15.2571   69.2936   -3.2726 O.3     1  UNL1       -0.3794
     13 H          15.9749   67.3712   -5.1210 H       1  UNL1        0.2106
     14 H          15.0309   68.3554   -3.3273 H       1  UNL1        0.2105
     15 N          17.4429   70.5299   -7.1116 N.ar    1  UNL1       -0.2551
     16 C          16.7756   70.5641   -8.2788 C.ar    1  UNL1        0.3323
     17 N          17.4334   70.5585   -9.4533 N.ar    1  UNL1       -0.2743
     18 C          18.7812   70.5201   -9.4762 C.ar    1  UNL1        0.2626
     19 C          19.4964   70.4849   -8.2550 C.ar    1  UNL1        0.0795
     20 C          18.8112   70.4957   -7.0922 C.ar    1  UNL1        0.0869
     21 O          15.5602   70.5991   -8.2733 O.2     1  UNL1       -0.2464
     22 O          19.3778   70.5154  -10.5385 O.2     1  UNL1       -0.2670
     23 H          16.9367   70.5823  -10.2857 H       1  UNL1        0.1734
     24 O          21.8051   71.4234   -2.8391 O.3     1  UNL1       -0.2703
     25 P          23.3302   71.9335   -2.7576 P.3     1  UNL1        0.2208
     26 O          24.3160   70.7561   -3.2431 O.3     1  UNL1       -0.4371
     27 O          23.5035   73.1134   -3.6328 O.2     1  UNL1       -0.5170
     28 O          23.6811   72.3355   -1.2384 O.3     1  UNL1       -0.2865
     29 C          22.7079   72.8400   -0.3220 C.3     1  UNL1        0.2611
     30 C          22.9995   74.3132   -0.0265 C.3     1  UNL1        0.1582
     31 C          24.3724   74.4287    0.6429 C.3     1  UNL1        0.1625
     32 C          24.3847   73.5690    1.9098 C.3     1  UNL1        0.1686
     33 C          24.0398   72.1241    1.5395 C.3     1  UNL1        0.1760
     34 O          24.6212   75.7931    0.9891 O.3     1  UNL1       -0.3801
     35 O          23.4183   74.0691    2.8357 O.3     1  UNL1       -0.3794
     36 O          22.7655   72.0909    0.8936 O.3     1  UNL1       -0.3263
     37 H          25.4757   75.9402    1.4173 H       1  UNL1        0.2105
     38 H          23.3709   73.5704    3.6634 H       1  UNL1        0.2105
     39 C          22.0464   75.9973   -1.5074 C.2     1  UNL1        0.2231
     40 C          22.0463   76.7788   -2.7950 C.3     1  UNL1        0.0946
     41 N          23.0000   75.0728   -1.2793 N.am    1  UNL1       -0.2994
     42 O          21.1874   76.1997   -0.6747 O.2     1  UNL1       -0.2751
     43 H          23.6864   74.9099   -1.9451 H       1  UNL1        0.1496
     44 C          23.9914   71.2704    2.8080 C.3     1  UNL1        0.1693
     45 O          24.8848   70.1633    2.6723 O.3     1  UNL1       -0.3794
     46 H          24.9059   69.5776    3.4415 H       1  UNL1        0.2105
@<TRIPOS>BOND
     1    29    30    1
     2    30    41    1
     3    30    31    1
     4    31    34    1
     5    31    32    1
     6    32    35    1
     7    32    33    1
     8    33    36    1
     9    33    44    1
    10    39    40    1
    11    39    42    2
    12    39    41   am
    13    41    43    1
    14    29    28    1
    15    34    37    1
    16    35    38    1
    17    29    36    1
    18    44    45    1
    19    45    46    1
    20    15     6    1
    21    15    16   ar
    22    16    21    2
    23    16    17   ar
    24    17    23    1
    25    17    18   ar
    26    18    19   ar
    27    19    20   ar
    28    15    20   ar
    29    18    22    2
    30     6     7    1
    31     6    11    1
    32     7     9    1
    33     7     8    1
    34     8    13    1
    35     9    10    1
    36     9    12    1
    37    10     5    1
    38    10    11    1
    39    12    14    1
    40     5     4    1
    41     4     1    1
    42     1     2    1
    43     1    24    1
    44     1     3    2
    45    24    25    1
    46    28    25    1
    47    25    26    1
    48    25    27    2
@<TRIPOS>MOLECULE
UD2
 46 48 0 0 0
SMALL
GASTEIGER

@<TRIPOS>ATOM
      1 P          21.0886   71.4907   -3.4361 P.3     1  UNL1        0.2189
      2 O          21.1426   69.8917   -3.6137 O.3     1  UNL1       -0.4371
      3 O          21.5809   72.1417   -4.6701 O.2     1  UNL1       -0.5170
      4 O          19.5699   71.9485   -3.1570 O.3     1  UNL1       -0.3112
      5 C          18.6002   71.0941   -2.5479 C.3     1  UNL1        0.1811
      6 C          16.9779   70.5805   -5.7167 C.3     1  UNL1        0.2383
      7 C          17.0494   69.1683   -5.0821 C.3     1  UNL1        0.1895
      8 O          15.9445   68.3646   -5.5004 O.3     1  UNL1       -0.3779
      9 C          16.9595   69.4866   -3.5694 C.3     1  UNL1        0.1713
     10 C          17.3850   70.9639   -3.4695 C.3     1  UNL1        0.1764
     11 O          17.7273   71.4011   -4.7944 O.3     1  UNL1       -0.3308
     12 O          15.6197   69.3189   -3.1031 O.3     1  UNL1       -0.3794
     13 H          15.9449   67.4715   -5.1302 H       1  UNL1        0.2106
     14 H          15.2793   68.4190   -3.1973 H       1  UNL1        0.2105
     15 N          17.6069   70.5840   -7.0393 N.ar    1  UNL1       -0.2551
     16 C          16.8430   70.4752   -8.1408 C.ar    1  UNL1        0.3323
     17 N          17.3941   70.4754   -9.3690 N.ar    1  UNL1       -0.2743
     18 C          18.7303   70.5875   -9.5133 C.ar    1  UNL1        0.2626
     19 C          19.5464   70.7038   -8.3624 C.ar    1  UNL1        0.0795
     20 C          18.9665   70.7050   -7.1437 C.ar    1  UNL1        0.0869
     21 O          15.6368   70.3736   -8.0258 O.2     1  UNL1       -0.2464
     22 O          19.2303   70.5882  -10.6244 O.2     1  UNL1       -0.2670
     23 H          16.8288   70.3948  -10.1527 H       1  UNL1        0.1734
     24 O          22.0161   71.9246   -2.1933 O.3     1  UNL1       -0.2703
     25 P          22.3079   73.3235   -1.4510 P.3     1  UNL1        0.2208
     26 O          23.8717   73.6851   -1.5840 O.3     1  UNL1       -0.4371
     27 O          21.5000   74.3926   -2.0775 O.2     1  UNL1       -0.5170
     28 O          21.9165   73.1967    0.1058 O.3     1  UNL1       -0.2865
     29 C          22.0613   74.2723    1.0349 C.3     1  UNL1        0.2611
     30 C          22.5654   73.7273    2.3734 C.3     1  UNL1        0.1582
     31 C          21.5264   72.7568    2.9436 C.3     1  UNL1        0.1625
     32 C          20.1858   73.4838    3.0807 C.3     1  UNL1        0.1686
     33 C          19.7733   74.0383    1.7146 C.3     1  UNL1        0.1760
     34 O          21.9551   72.2992    4.2281 O.3     1  UNL1       -0.3801
     35 O          20.3184   74.5585    4.0127 O.3     1  UNL1       -0.3794
     36 O          20.7963   74.9088    1.2270 O.3     1  UNL1       -0.3263
     37 H          21.3437   71.6791    4.6485 H       1  UNL1        0.2105
     38 H          19.5052   75.0647    4.1487 H       1  UNL1        0.2105
     39 C          24.8467   73.1903    3.0406 C.2     1  UNL1        0.2231
     40 C          26.1503   72.4657    2.8307 C.3     1  UNL1        0.0946
     41 N          23.8333   73.0223    2.1684 N.am    1  UNL1       -0.2994
     42 O          24.7083   73.9259    3.9956 O.2     1  UNL1       -0.2751
     43 H          23.9438   72.4350    1.4042 H       1  UNL1        0.1496
     44 C          18.4642   74.8174    1.8548 C.3     1  UNL1        0.1693
     45 O          18.5473   75.6907    2.9830 O.3     1  UNL1       -0.3794
     46 H          17.7503   76.2173    3.1329 H       1  UNL1        0.2105
@<TRIPOS>BOND
     1    29    30    1
     2    30    41    1
     3    30    31    1
     4    31    34    1
     5    31    32    1
     6    32    35    1
     7    32    33    1
     8    33    36    1
     9    33    44    1
    10    39    40    1
    11    39    42    2
    12    39    41   am
    13    41    43    1
    14    29    28    1
    15    34    37    1
    16    35    38    1
    17    29    36    1
    18    44    45    1
    19    45    46    1
    20    15     6    1
    21    15    16   ar
    22    16    21    2
    23    16    17   ar
    24    17    23    1
    25    17    18   ar
    26    18    19   ar
    27    19    20   ar
    28    15    20   ar
    29    18    22    2
    30     6     7    1
    31     6    11    1
    32     7     9    1
    33     7     8    1
    34     8    13    1
    35     9    10    1
    36     9    12    1
    37    10     5    1
    38    10    11    1
    39    12    14    1
    40     5     4    1
    41     4     1    1
    42     1     2    1
    43     1    24    1
    44     1     3    2
    45    24    25    1
    46    28    25    1
    47    25    26    1
    48    25    27    2
@<TRIPOS>MOLECULE
UD2
 46 48 0 0 0
SMALL
GASTEIGER

@<TRIPOS>ATOM
      1 P          23.4800   72.0285   -3.2991 P.3     1  UNL1        0.2189
      2 O          24.4361   72.9952   -4.1609 O.3     1  UNL1       -0.4371
      3 O          24.1942   70.7684   -2.9975 O.2     1  UNL1       -0.5170
      4 O          23.0780   72.7604   -1.9220 O.3     1  UNL1       -0.3112
      5 C          21.7346   72.8251   -1.4396 C.3     1  UNL1        0.1811
      6 C          23.1038   72.0552    1.7960 C.3     1  UNL1        0.2383
      7 C          22.4455   73.4472    1.9726 C.3     1  UNL1        0.1895
      8 O          21.9660   73.6190    3.3076 O.3     1  UNL1       -0.3779
      9 C          21.2696   73.3807    0.9675 C.3     1  UNL1        0.1713
     10 C          21.6770   72.2667   -0.0156 C.3     1  UNL1        0.1764
     11 O          22.9772   71.8015    0.3800 O.3     1  UNL1       -0.3308
     12 O          20.0573   73.0361    1.6402 O.3     1  UNL1       -0.3794
     13 H          21.5462   74.4750    3.4679 H       1  UNL1        0.2106
     14 H          19.7848   73.6744    2.3131 H       1  UNL1        0.2105
     15 N          24.5141   72.0980    2.1888 N.ar    1  UNL1       -0.2551
     16 C          25.2320   70.9612    2.2199 C.ar    1  UNL1        0.3323
     17 N          26.5299   70.9709    2.5773 N.ar    1  UNL1       -0.2743
     18 C          27.1336   72.1300    2.9099 C.ar    1  UNL1        0.2626
     19 C          26.3901   73.3344    2.8806 C.ar    1  UNL1        0.0795
     20 C          25.0917   73.2957    2.5144 C.ar    1  UNL1        0.0869
     21 O          24.7007   69.9088    1.9223 O.2     1  UNL1       -0.2464
     22 O          28.3083   72.1403    3.2332 O.2     1  UNL1       -0.2670
     23 H          27.0326   70.1420    2.5956 H       1  UNL1        0.1734
     24 O          22.1469   71.7019   -4.1414 O.3     1  UNL1       -0.2703
     25 P          21.5066   72.2943   -5.4950 P.3     1  UNL1        0.2208
     26 O          21.2437   73.8732   -5.3174 O.3     1  UNL1       -0.4371
     27 O          22.4409   72.0739   -6.6205 O.2     1  UNL1       -0.5170
     28 O          20.1125   71.5487   -5.8002 O.3     1  UNL1       -0.2865
     29 C          19.0285   72.1759   -6.4877 C.3     1  UNL1        0.2611
     30 C          17.7055   71.7720   -5.8326 C.3     1  UNL1        0.1582
     31 C          17.5235   70.2566   -5.9617 C.3     1  UNL1        0.1625
     32 C          17.5796   69.8707   -7.4423 C.3     1  UNL1        0.1686
     33 C          18.9078   70.3480   -8.0355 C.3     1  UNL1        0.1760
     34 O          16.2563   69.8801   -5.4177 O.3     1  UNL1       -0.3801
     35 O          16.4956   70.4886   -8.1383 O.3     1  UNL1       -0.3794
     36 O          19.0281   71.7604   -7.8551 O.3     1  UNL1       -0.3263
     37 H          16.0744   68.9315   -5.4655 H       1  UNL1        0.2105
     38 H          16.4692   70.2878   -9.0844 H       1  UNL1        0.2105
     39 C          18.1749   71.2663   -3.4956 C.2     1  UNL1        0.2231
     40 C          18.1983   71.6476   -2.0387 C.3     1  UNL1        0.0946
     41 N          17.7277   72.1436   -4.4156 N.am    1  UNL1       -0.2994
     42 O          18.5589   70.1686   -3.8417 O.2     1  UNL1       -0.2751
     43 H          17.4197   73.0210   -4.1392 H       1  UNL1        0.1496
     44 C          18.9465   70.0191   -9.5291 C.3     1  UNL1        0.1693
     45 O          18.4638   71.1375  -10.2765 O.3     1  UNL1       -0.3794
     46 H          18.4600   70.9996  -11.2336 H       1  UNL1        0.2105
@<TRIPOS>BOND
     1    29    30    1
     2    30    41    1
     3    30    31    1
     4    31    34    1
     5    31    32    1
     6    32    35    1
     7    32    33    1
     8    33    36    1
     9    33    44    1
    10    39    40    1
    11    39    42    2
    12    39    41   am
    13    41    43    1
    14    29    28    1
    15    34    37    1
    16    35    38    1
    17    29    36    1
    18    44    45    1
    19    45    46    1
    20    15     6    1
    21    15    16   ar
    22    16    21    2
    23    16    17   ar
    24    17    23    1
    25    17    18   ar
    26    18    19   ar
    27    19    20   ar
    28    15    20   ar
    29    18    22    2
    30     6     7    1
    31     6    11    1
    32     7     9    1
    33     7     8    1
    34     8    13    1
    35     9    10    1
    36     9    12    1
    37    10     5    1
    38    10    11    1
    39    12    14    1
    40     5     4    1
    41     4     1    1
    42     1     2    1
    43     1    24    1
    44     1     3    2
    45    24    25    1
    46    28    25    1
    47    25    26    1
    48    25    27    2
@<TRIPOS>MOLECULE
UD2
 46 48 0 0 0
SMALL
GASTEIGER

@<TRIPOS>ATOM
      1 P          16.2539   69.5810   -2.4494 P.3     1  UNL1        0.2189
      2 O          17.1030   68.3581   -1.8371 O.3     1  UNL1       -0.4371
      3 O          15.6526   69.1691   -3.7368 O.2     1  UNL1       -0.5170
      4 O          15.0866   69.9925   -1.4190 O.3     1  UNL1       -0.3112
      5 C          14.6362   69.1322   -0.3710 C.3     1  UNL1        0.1811
      6 C          11.1199   68.3788   -0.4394 C.3     1  UNL1        0.2383
      7 C          11.6120   67.8191    0.9196 C.3     1  UNL1        0.1895
      8 O          10.5757   67.8798    1.9015 O.3     1  UNL1       -0.3779
      9 C          12.7653   68.7900    1.2728 C.3     1  UNL1        0.1713
     10 C          13.1601   69.4135   -0.0796 C.3     1  UNL1        0.1764
     11 O          12.3381   68.8043   -1.0879 O.3     1  UNL1       -0.3308
     12 O          12.3091   69.7991    2.1752 O.3     1  UNL1       -0.3794
     13 H          10.8350   67.5403    2.7688 H       1  UNL1        0.2106
     14 H          11.9927   69.4567    3.0220 H       1  UNL1        0.2105
     15 N          10.4584   67.3308   -1.2198 N.ar    1  UNL1       -0.2551
     16 C          10.7913   66.0427   -1.0228 C.ar    1  UNL1        0.3323
     17 N          10.1998   65.0589   -1.7260 N.ar    1  UNL1       -0.2743
     18 C           9.2565   65.3532   -2.6436 C.ar    1  UNL1        0.2626
     19 C           8.8955   66.7048   -2.8605 C.ar    1  UNL1        0.0795
     20 C           9.5018   67.6704   -2.1383 C.ar    1  UNL1        0.0869
     21 O          11.6401   65.7626   -0.1985 O.2     1  UNL1       -0.2464
     22 O           8.7200   64.4637   -3.2804 O.2     1  UNL1       -0.2670
     23 H          10.4525   64.1355   -1.5723 H       1  UNL1        0.1734
     24 O          17.2259   70.8423   -2.6898 O.3     1  UNL1       -0.2703
     25 P          17.1231   72.1786   -3.5823 P.3     1  UNL1        0.2208
     26 O          15.5733   72.5451   -3.8225 O.3     1  UNL1       -0.4371
     27 O          17.7900   73.2953   -2.8777 O.2     1  UNL1       -0.5170
     28 O          17.8430   71.9326   -5.0015 O.3     1  UNL1       -0.2865
     29 C          18.6153   70.7659   -5.2907 C.3     1  UNL1        0.2611
     30 C          20.1011   71.1319   -5.3248 C.3     1  UNL1        0.1582
     31 C          20.3437   72.1413   -6.4511 C.3     1  UNL1        0.1625
     32 C          19.8639   71.5387   -7.7743 C.3     1  UNL1        0.1686
     33 C          18.3868   71.1570   -7.6458 C.3     1  UNL1        0.1760
     34 O          21.7404   72.4329   -6.5378 O.3     1  UNL1       -0.3801
     35 O          20.6342   70.3738   -8.0759 O.3     1  UNL1       -0.3794
     36 O          18.2259   70.2404   -6.5614 O.3     1  UNL1       -0.3263
     37 H          21.9669   73.0676   -7.2314 H       1  UNL1        0.2105
     38 H          20.3833   69.9387   -8.9028 H       1  UNL1        0.2105
     39 C          21.1188   70.9781   -3.1161 C.2     1  UNL1        0.2231
     40 C          21.5174   71.5884   -1.7980 C.3     1  UNL1        0.0946
     41 N          20.4882   71.7262   -4.0428 N.am    1  UNL1       -0.2994
     42 O          21.3655   69.8122   -3.3442 O.2     1  UNL1       -0.2751
     43 H          20.2899   72.6581   -3.8605 H       1  UNL1        0.1496
     44 C          17.9153   70.4994   -8.9441 C.3     1  UNL1        0.1693
     45 O          18.5451   71.1364  -10.0576 O.3     1  UNL1       -0.3794
     46 H          18.2921   70.7699  -10.9159 H       1  UNL1        0.2105
@<TRIPOS>BOND
     1    29    30    1
     2    30    41    1
     3    30    31    1
     4    31    34    1
     5    31    32    1
     6    32    35    1
     7    32    33    1
     8    33    36    1
     9    33    44    1
    10    39    40    1
    11    39    42    2
    12    39    41   am
    13    41    43    1
    14    29    28    1
    15    34    37    1
    16    35    38    1
    17    29    36    1
    18    44    45    1
    19    45    46    1
    20    15     6    1
    21    15    16   ar
    22    16    21    2
    23    16    17   ar
    24    17    23    1
    25    17    18   ar
    26    18    19   ar
    27    19    20   ar
    28    15    20   ar
    29    18    22    2
    30     6     7    1
    31     6    11    1
    32     7     9    1
    33     7     8    1
    34     8    13    1
    35     9    10    1
    36     9    12    1
    37    10     5    1
    38    10    11    1
    39    12    14    1
    40     5     4    1
    41     4     1    1
    42     1     2    1
    43     1    24    1
    44     1     3    2
    45    24    25    1
    46    28    25    1
    47    25    26    1
    48    25    27    2
@<TRIPOS>MOLECULE
UD2
 46 48 0 0 0
SMALL
GASTEIGER

@<TRIPOS>ATOM
      1 P          20.0739   71.3114   -1.9923 P.3     1  UNL1        0.2189
      2 O          21.1457   70.5446   -2.9167 O.3     1  UNL1       -0.4371
      3 O          20.1949   72.7709   -2.2026 O.2     1  UNL1       -0.5170
      4 O          18.5871   70.8339   -2.3859 O.3     1  UNL1       -0.3112
      5 C          17.5020   71.7446   -2.5718 C.3     1  UNL1        0.1811
      6 C          16.6034   70.4947   -5.8225 C.3     1  UNL1        0.2383
      7 C          16.9747   69.2298   -5.0076 C.3     1  UNL1        0.1895
      8 O          16.2227   68.0985   -5.4509 O.3     1  UNL1       -0.3779
      9 C          16.5652   69.6366   -3.5709 C.3     1  UNL1        0.1713
     10 C          16.5319   71.1764   -3.6106 C.3     1  UNL1        0.1764
     11 O          16.9363   71.5792   -4.9288 O.3     1  UNL1       -0.3308
     12 O          15.2731   69.1160   -3.2541 O.3     1  UNL1       -0.3794
     13 H          16.4201   67.2824   -4.9717 H       1  UNL1        0.2106
     14 H          15.2218   68.1509   -3.2726 H       1  UNL1        0.2105
     15 N          17.4020   70.5718   -7.0478 N.ar    1  UNL1       -0.2551
     16 C          16.7867   70.6085   -8.2431 C.ar    1  UNL1        0.3323
     17 N          17.4956   70.6792   -9.3854 N.ar    1  UNL1       -0.2743
     18 C          18.8431   70.7162   -9.3467 C.ar    1  UNL1        0.2626
     19 C          19.5039   70.6793   -8.0953 C.ar    1  UNL1        0.0795
     20 C          18.7679   70.6127   -6.9659 C.ar    1  UNL1        0.0869
     21 O          15.5723   70.5760   -8.2931 O.2     1  UNL1       -0.2464
     22 O          19.4859   70.7806  -10.3798 O.2     1  UNL1       -0.2670
     23 H          17.0361   70.7036  -10.2388 H       1  UNL1        0.1734
     24 O          20.3555   70.9666   -0.4447 O.3     1  UNL1       -0.2703
     25 P          21.4548   71.4528    0.6268 P.3     1  UNL1        0.2208
     26 O          20.7237   71.8301    2.0114 O.3     1  UNL1       -0.4371
     27 O          22.4279   70.3642    0.8642 O.2     1  UNL1       -0.5170
     28 O          22.2248   72.7466    0.0561 O.3     1  UNL1       -0.2865
     29 C          23.6084   72.7348   -0.3001 C.3     1  UNL1        0.2611
     30 C          24.2801   74.0096    0.2160 C.3     1  UNL1        0.1582
     31 C          23.6364   75.2247   -0.4591 C.3     1  UNL1        0.1625
     32 C          23.7611   75.0770   -1.9779 C.3     1  UNL1        0.1686
     33 C          23.1092   73.7606   -2.4095 C.3     1  UNL1        0.1760
     34 O          24.3066   76.4151   -0.0383 O.3     1  UNL1       -0.3801
     35 O          25.1417   75.0698   -2.3454 O.3     1  UNL1       -0.3794
     36 O          23.7332   72.6742   -1.7224 O.3     1  UNL1       -0.3263
     37 H          23.9497   77.2253   -0.4273 H       1  UNL1        0.2105
     38 H          25.2959   74.9783   -3.2961 H       1  UNL1        0.2105
     39 C          23.0274   74.7410    2.1740 C.2     1  UNL1        0.2231
     40 C          22.8428   74.8380    3.6657 C.3     1  UNL1        0.0946
     41 N          24.1013   74.1038    1.6671 N.am    1  UNL1       -0.2994
     42 O          22.2091   75.2366    1.4278 O.2     1  UNL1       -0.2751
     43 H          24.7563   73.7083    2.2634 H       1  UNL1        0.1496
     44 C          23.2821   73.5769   -3.9184 C.3     1  UNL1        0.1693
     45 O          24.3996   72.7223   -4.1701 O.3     1  UNL1       -0.3794
     46 H          24.5689   72.5613   -5.1084 H       1  UNL1        0.2105
@<TRIPOS>BOND
     1    29    30    1
     2    30    41    1
     3    30    31    1
     4    31    34    1
     5    31    32    1
     6    32    35    1
     7    32    33    1
     8    33    36    1
     9    33    44    1
    10    39    40    1
    11    39    42    2
    12    39    41   am
    13    41    43    1
    14    29    28    1
    15    34    37    1
    16    35    38    1
    17    29    36    1
    18    44    45    1
    19    45    46    1
    20    15     6    1
    21    15    16   ar
    22    16    21    2
    23    16    17   ar
    24    17    23    1
    25    17    18   ar
    26    18    19   ar
    27    19    20   ar
    28    15    20   ar
    29    18    22    2
    30     6     7    1
    31     6    11    1
    32     7     9    1
    33     7     8    1
    34     8    13    1
    35     9    10    1
    36     9    12    1
    37    10     5    1
    38    10    11    1
    39    12    14    1
    40     5     4    1
    41     4     1    1
    42     1     2    1
    43     1    24    1
    44     1     3    2
    45    24    25    1
    46    28    25    1
    47    25    26    1
    48    25    27    2
@<TRIPOS>MOLECULE
UD2
 46 48 0 0 0
SMALL
GASTEIGER

@<TRIPOS>ATOM
      1 P          23.1531   71.6642   -2.6707 P.3     1  UNL1        0.2189
      2 O          23.2098   72.8587   -3.7483 O.3     1  UNL1       -0.4371
      3 O          24.2144   70.6779   -2.9703 O.2     1  UNL1       -0.5170
      4 O          23.3790   72.2635   -1.1930 O.3     1  UNL1       -0.3112
      5 C          23.6981   71.4481   -0.0640 C.3     1  UNL1        0.1811
      6 C          25.3032   73.0649    2.7191 C.3     1  UNL1        0.2383
      7 C          25.2946   74.1355    1.5985 C.3     1  UNL1        0.1895
      8 O          25.2123   75.4510    2.1504 O.3     1  UNL1       -0.3779
      9 C          24.0039   73.7813    0.8201 C.3     1  UNL1        0.1713
     10 C          23.7270   72.3137    1.1981 C.3     1  UNL1        0.1764
     11 O          24.7933   71.8854    2.0601 O.3     1  UNL1       -0.3308
     12 O          22.9240   74.6181    1.2377 O.3     1  UNL1       -0.3794
     13 H          25.2045   76.1557    1.4886 H       1  UNL1        0.2106
     14 H          23.0706   75.5601    1.0776 H       1  UNL1        0.2105
     15 N          26.6662   72.8368    3.2042 N.ar    1  UNL1       -0.2551
     16 C          27.1742   73.6320    4.1626 C.ar    1  UNL1        0.3323
     17 N          28.4239   73.4455    4.6271 N.ar    1  UNL1       -0.2743
     18 C          29.1892   72.4499    4.1354 C.ar    1  UNL1        0.2626
     19 C          28.6667   71.6047    3.1270 C.ar    1  UNL1        0.0795
     20 C          27.4092   71.8120    2.6830 C.ar    1  UNL1        0.0869
     21 O          26.4954   74.5335    4.6153 O.2     1  UNL1       -0.2464
     22 O          30.3203   72.2798    4.5552 O.2     1  UNL1       -0.2670
     23 H          28.7752   74.0287    5.3175 H       1  UNL1        0.1734
     24 O          21.7146   70.9438   -2.7427 O.3     1  UNL1       -0.2703
     25 P          20.2038   71.4356   -2.4808 P.3     1  UNL1        0.2208
     26 O          19.3759   70.2607   -1.7541 O.3     1  UNL1       -0.4371
     27 O          20.2182   72.6357   -1.6160 O.2     1  UNL1       -0.5170
     28 O          19.5052   71.7947   -3.8864 O.3     1  UNL1       -0.2865
     29 C          19.7267   71.0422   -5.0805 C.3     1  UNL1        0.2611
     30 C          19.4837   71.9350   -6.2998 C.3     1  UNL1        0.1582
     31 C          18.0221   72.3932   -6.3032 C.3     1  UNL1        0.1625
     32 C          17.1122   71.1617   -6.2949 C.3     1  UNL1        0.1686
     33 C          17.4467   70.2986   -5.0755 C.3     1  UNL1        0.1760
     34 O          17.7673   73.1673   -7.4776 O.3     1  UNL1       -0.3801
     35 O          17.3220   70.4048   -7.4884 O.3     1  UNL1       -0.3794
     36 O          18.8273   69.9323   -5.1174 O.3     1  UNL1       -0.3263
     37 H          16.8588   73.4916   -7.5449 H       1  UNL1        0.2105
     38 H          16.7773   69.6077   -7.5503 H       1  UNL1        0.2105
     39 C          21.3856   73.2300   -7.1021 C.2     1  UNL1        0.2231
     40 C          22.2902   74.4323   -7.0341 C.3     1  UNL1        0.0946
     41 N          20.3634   73.1047   -6.2329 N.am    1  UNL1       -0.2994
     42 O          21.5769   72.3733   -7.9398 O.2     1  UNL1       -0.2751
     43 H          20.2107   73.7889   -5.5624 H       1  UNL1        0.1496
     44 C          16.5830   69.0360   -5.0922 C.3     1  UNL1        0.1693
     45 O          15.7207   69.0326   -3.9526 O.3     1  UNL1       -0.3794
     46 H          15.1429   68.2592   -3.8981 H       1  UNL1        0.2105
@<TRIPOS>BOND
     1    29    30    1
     2    30    41    1
     3    30    31    1
     4    31    34    1
     5    31    32    1
     6    32    35    1
     7    32    33    1
     8    33    36    1
     9    33    44    1
    10    39    40    1
    11    39    42    2
    12    39    41   am
    13    41    43    1
    14    29    28    1
    15    34    37    1
    16    35    38    1
    17    29    36    1
    18    44    45    1
    19    45    46    1
    20    15     6    1
    21    15    16   ar
    22    16    21    2
    23    16    17   ar
    24    17    23    1
    25    17    18   ar
    26    18    19   ar
    27    19    20   ar
    28    15    20   ar
    29    18    22    2
    30     6     7    1
    31     6    11    1
    32     7     9    1
    33     7     8    1
    34     8    13    1
    35     9    10    1
    36     9    12    1
    37    10     5    1
    38    10    11    1
    39    12    14    1
    40     5     4    1
    41     4     1    1
    42     1     2    1
    43     1    24    1
    44     1     3    2
    45    24    25    1
    46    28    25    1
    47    25    26    1
    48    25    27    2
@<TRIPOS>MOLECULE
UD2
 46 48 0 0 0
SMALL
GASTEIGER

@<TRIPOS>ATOM
      1 P          21.8814   72.3732   -6.0378 P.3     1  UNL1        0.2189
      2 O          23.2295   72.9482   -6.7036 O.3     1  UNL1       -0.4371
      3 O          20.8617   73.4438   -5.9835 O.2     1  UNL1       -0.5170
      4 O          21.3263   71.1477   -6.9230 O.3     1  UNL1       -0.3112
      5 C          20.5869   71.3341   -8.1313 C.3     1  UNL1        0.1811
      6 C          17.4517   70.0760   -6.8968 C.3     1  UNL1        0.2383
      7 C          17.0566   71.1122   -7.9795 C.3     1  UNL1        0.1895
      8 O          15.8283   70.7465   -8.6115 O.3     1  UNL1       -0.3779
      9 C          18.2401   71.0120   -8.9728 C.3     1  UNL1        0.1713
     10 C          19.3793   70.3936   -8.1401 C.3     1  UNL1        0.1764
     11 O          18.8856   70.2196   -6.8024 O.3     1  UNL1       -0.3308
     12 O          17.9013   70.1600  -10.0683 O.3     1  UNL1       -0.3794
     13 H          15.5388   71.3644   -9.2963 H       1  UNL1        0.2106
     14 H          17.1512   70.4714  -10.5925 H       1  UNL1        0.2105
     15 N          16.8152   70.3984   -5.6177 N.ar    1  UNL1       -0.2551
     16 C          16.4091   69.4055   -4.8065 C.ar    1  UNL1        0.3323
     17 N          15.8211   69.6726   -3.6253 N.ar    1  UNL1       -0.2743
     18 C          15.6312   70.9494   -3.2351 C.ar    1  UNL1        0.2626
     19 C          16.0547   72.0044   -4.0786 C.ar    1  UNL1        0.0795
     20 C          16.6452   71.7076   -5.2554 C.ar    1  UNL1        0.0869
     21 O          16.5741   68.2495   -5.1454 O.2     1  UNL1       -0.2464
     22 O          15.0995   71.1925   -2.1661 O.2     1  UNL1       -0.2670
     23 H          15.5331   68.9448   -3.0531 H       1  UNL1        0.1734
     24 O          22.1975   71.8565   -4.5457 O.3     1  UNL1       -0.2703
     25 P          23.3827   72.1384   -3.4927 P.3     1  UNL1        0.2208
     26 O          24.0971   70.7482   -3.1046 O.3     1  UNL1       -0.4371
     27 O          24.3765   73.0501   -4.1005 O.2     1  UNL1       -0.5170
     28 O          22.7719   72.8170   -2.1664 O.3     1  UNL1       -0.2865
     29 C          23.0784   72.3617   -0.8472 C.3     1  UNL1        0.2611
     30 C          21.7809   72.0267   -0.1077 C.3     1  UNL1        0.1582
     31 C          20.9354   73.2972    0.0235 C.3     1  UNL1        0.1625
     32 C          21.7546   74.3704    0.7457 C.3     1  UNL1        0.1686
     33 C          23.0535   74.6152   -0.0270 C.3     1  UNL1        0.1760
     34 O          19.7554   73.0095    0.7771 O.3     1  UNL1       -0.3801
     35 O          22.0617   73.9270    2.0688 O.3     1  UNL1       -0.3794
     36 O          23.7772   73.3882   -0.1399 O.3     1  UNL1       -0.3263
     37 H          19.1715   73.7708    0.8989 H       1  UNL1        0.2105
     38 H          22.5813   74.5588    2.5854 H       1  UNL1        0.2105
     39 C          20.0772   71.3973   -1.7322 C.2     1  UNL1        0.2231
     40 C          19.3091   70.3603   -2.5089 C.3     1  UNL1        0.0946
     41 N          21.0340   71.0173   -0.8627 N.am    1  UNL1       -0.2994
     42 O          19.8346   72.5758   -1.8891 O.2     1  UNL1       -0.2751
     43 H          21.2276   70.0752   -0.7362 H       1  UNL1        0.1496
     44 C          23.9052   75.6431    0.7203 C.3     1  UNL1        0.1693
     45 O          25.2742   75.4975    0.3371 O.3     1  UNL1       -0.3794
     46 H          25.8735   76.1186    0.7730 H       1  UNL1        0.2105
@<TRIPOS>BOND
     1    29    30    1
     2    30    41    1
     3    30    31    1
     4    31    34    1
     5    31    32    1
     6    32    35    1
     7    32    33    1
     8    33    36    1
     9    33    44    1
    10    39    40    1
    11    39    42    2
    12    39    41   am
    13    41    43    1
    14    29    28    1
    15    34    37    1
    16    35    38    1
    17    29    36    1
    18    44    45    1
    19    45    46    1
    20    15     6    1
    21    15    16   ar
    22    16    21    2
    23    16    17   ar
    24    17    23    1
    25    17    18   ar
    26    18    19   ar
    27    19    20   ar
    28    15    20   ar
    29    18    22    2
    30     6     7    1
    31     6    11    1
    32     7     9    1
    33     7     8    1
    34     8    13    1
    35     9    10    1
    36     9    12    1
    37    10     5    1
    38    10    11    1
    39    12    14    1
    40     5     4    1
    41     4     1    1
    42     1     2    1
    43     1    24    1
    44     1     3    2
    45    24    25    1
    46    28    25    1
    47    25    26    1
    48    25    27    2
@<TRIPOS>MOLECULE
UD2
 46 48 0 0 0
SMALL
GASTEIGER

@<TRIPOS>ATOM
      1 P          18.3324   73.8280   -1.1741 P.3     1  UNL1        0.2189
      2 O          19.3842   74.1639   -2.3455 O.3     1  UNL1       -0.4371
      3 O          17.1733   74.7420   -1.2740 O.2     1  UNL1       -0.5170
      4 O          17.8298   72.3054   -1.3247 O.3     1  UNL1       -0.3112
      5 C          18.2738   71.4403   -2.3716 C.3     1  UNL1        0.1811
      6 C          16.8462   70.6870   -5.5858 C.3     1  UNL1        0.2383
      7 C          17.0116   69.3071   -4.8997 C.3     1  UNL1        0.1895
      8 O          16.0007   68.3963   -5.3357 O.3     1  UNL1       -0.3779
      9 C          16.8266   69.6631   -3.4042 C.3     1  UNL1        0.1713
     10 C          17.1172   71.1746   -3.3383 C.3     1  UNL1        0.1764
     11 O          17.4793   71.5989   -4.6620 O.3     1  UNL1       -0.3308
     12 O          15.4869   69.3922   -2.9890 O.3     1  UNL1       -0.3794
     13 H          16.0622   67.5187   -4.9349 H       1  UNL1        0.2106
     14 H          15.2306   68.4633   -3.0658 H       1  UNL1        0.2105
     15 N          17.5312   70.7049   -6.8801 N.ar    1  UNL1       -0.2551
     16 C          16.8284   70.5028   -8.0089 C.ar    1  UNL1        0.3323
     17 N          17.4320   70.5137   -9.2121 N.ar    1  UNL1       -0.2743
     18 C          18.7598   70.7310   -9.3035 C.ar    1  UNL1        0.2626
     19 C          19.5117   70.9463   -8.1234 C.ar    1  UNL1        0.0795
     20 C          18.8799   70.9341   -6.9309 C.ar    1  UNL1        0.0869
     21 O          15.6305   70.3059   -7.9416 O.2     1  UNL1       -0.2464
     22 O          19.3072   70.7415  -10.3919 O.2     1  UNL1       -0.2670
     23 H          16.9106   70.3650  -10.0160 H       1  UNL1        0.1734
     24 O          19.0445   74.0182    0.2577 O.3     1  UNL1       -0.2703
     25 P          20.3838   73.4261    0.9275 P.3     1  UNL1        0.2208
     26 O          20.4469   73.8629    2.4764 O.3     1  UNL1       -0.4371
     27 O          20.3724   71.9499    0.8320 O.2     1  UNL1       -0.5170
     28 O          21.6718   74.0046    0.1535 O.3     1  UNL1       -0.2865
     29 C          22.9337   73.3349    0.1334 C.3     1  UNL1        0.2611
     30 C          22.7105   71.8283   -0.0185 C.3     1  UNL1        0.1582
     31 C          21.9292   71.3119    1.1936 C.3     1  UNL1        0.1625
     32 C          22.7003   71.6587    2.4701 C.3     1  UNL1        0.1686
     33 C          22.9238   73.1722    2.5261 C.3     1  UNL1        0.1760
     34 O          21.7799   69.8936    1.0962 O.3     1  UNL1       -0.3801
     35 O          23.9623   70.9889    2.4626 O.3     1  UNL1       -0.3794
     36 O          23.6282   73.5917    1.3557 O.3     1  UNL1       -0.3263
     37 H          21.2927   69.4983    1.8321 H       1  UNL1        0.2105
     38 H          24.5059   71.1641    3.2435 H       1  UNL1        0.2105
     39 C          22.5776   71.1397   -2.3521 C.2     1  UNL1        0.2231
     40 C          21.7927   70.8713   -3.6093 C.3     1  UNL1        0.0946
     41 N          21.9464   71.5677   -1.2410 N.am    1  UNL1       -0.2994
     42 O          23.7790   70.9707   -2.3392 O.2     1  UNL1       -0.2751
     43 H          20.9860   71.7038   -1.2512 H       1  UNL1        0.1496
     44 C          23.7455   73.5206    3.7686 C.3     1  UNL1        0.1693
     45 O          25.1367   73.3717    3.4777 O.3     1  UNL1       -0.3794
     46 H          25.7189   73.5765    4.2221 H       1  UNL1        0.2105
@<TRIPOS>BOND
     1    29    30    1
     2    30    41    1
     3    30    31    1
     4    31    34    1
     5    31    32    1
     6    32    35    1
     7    32    33    1
     8    33    36    1
     9    33    44    1
    10    39    40    1
    11    39    42    2
    12    39    41   am
    13    41    43    1
    14    29    28    1
    15    34    37    1
    16    35    38    1
    17    29    36    1
    18    44    45    1
    19    45    46    1
    20    15     6    1
    21    15    16   ar
    22    16    21    2
    23    16    17   ar
    24    17    23    1
    25    17    18   ar
    26    18    19   ar
    27    19    20   ar
    28    15    20   ar
    29    18    22    2
    30     6     7    1
    31     6    11    1
    32     7     9    1
    33     7     8    1
    34     8    13    1
    35     9    10    1
    36     9    12    1
    37    10     5    1
    38    10    11    1
    39    12    14    1
    40     5     4    1
    41     4     1    1
    42     1     2    1
    43     1    24    1
    44     1     3    2
    45    24    25    1
    46    28    25    1
    47    25    26    1
    48    25    27    2
@<TRIPOS>MOLECULE
UD2
 46 48 0 0 0
SMALL
GASTEIGER

@<TRIPOS>ATOM
      1 P          20.2837   72.0222   -3.4380 P.3     1  UNL1        0.2189
      2 O          20.6231   71.7987   -4.9956 O.3     1  UNL1       -0.4371
      3 O          19.9264   73.4396   -3.2089 O.2     1  UNL1       -0.5170
      4 O          19.0453   71.0820   -3.0185 O.3     1  UNL1       -0.3112
      5 C          17.7669   71.6005   -2.6465 C.3     1  UNL1        0.1811
      6 C          16.6530   70.5030   -5.8855 C.3     1  UNL1        0.2383
      7 C          16.9375   69.1935   -5.1069 C.3     1  UNL1        0.1895
      8 O          16.0737   68.1424   -5.5437 O.3     1  UNL1       -0.3779
      9 C          16.6139   69.6046   -3.6496 C.3     1  UNL1        0.1713
     10 C          16.7161   71.1418   -3.6605 C.3     1  UNL1        0.1764
     11 O          17.1104   71.5350   -4.9847 O.3     1  UNL1       -0.3308
     12 O          15.2920   69.1933   -3.2970 O.3     1  UNL1       -0.3794
     13 H          16.2137   67.3022   -5.0864 H       1  UNL1        0.2106
     14 H          15.1546   68.2371   -3.3310 H       1  UNL1        0.2105
     15 N          17.4139   70.5350   -7.1364 N.ar    1  UNL1       -0.2551
     16 C          16.7633   70.5066   -8.3132 C.ar    1  UNL1        0.3323
     17 N          17.4371   70.5348   -9.4782 N.ar    1  UNL1       -0.2743
     18 C          18.7844   70.5942   -9.4818 C.ar    1  UNL1        0.2626
     19 C          19.4821   70.6257   -8.2504 C.ar    1  UNL1        0.0795
     20 C          18.7808   70.6006   -7.0976 C.ar    1  UNL1        0.0869
     21 O          15.5487   70.4532   -8.3250 O.2     1  UNL1       -0.2464
     22 O          19.3954   70.6201  -10.5356 O.2     1  UNL1       -0.2670
     23 H          16.9525   70.5124  -10.3177 H       1  UNL1        0.1734
     24 O          21.5708   71.6421   -2.5480 O.3     1  UNL1       -0.2703
     25 P          23.0231   72.3064   -2.3420 P.3     1  UNL1        0.2208
     26 O          23.4080   72.2797   -0.7784 O.3     1  UNL1       -0.4371
     27 O          24.0294   71.5411   -3.1102 O.2     1  UNL1       -0.5170
     28 O          22.9950   73.8300   -2.8623 O.3     1  UNL1       -0.2865
     29 C          24.0468   74.4072   -3.6380 C.3     1  UNL1        0.2611
     30 C          23.9584   75.9334   -3.5637 C.3     1  UNL1        0.1582
     31 C          22.6282   76.3893   -4.1714 C.3     1  UNL1        0.1625
     32 C          22.5321   75.8716   -5.6091 C.3     1  UNL1        0.1686
     33 C          22.6755   74.3473   -5.6045 C.3     1  UNL1        0.1760
     34 O          22.5690   77.8175   -4.1731 O.3     1  UNL1       -0.3801
     35 O          23.5768   76.4478   -6.3952 O.3     1  UNL1       -0.3794
     36 O          23.9191   73.9893   -4.9986 O.3     1  UNL1       -0.3263
     37 H          21.7513   78.1764   -4.5444 H       1  UNL1        0.2105
     38 H          23.5773   76.1627   -7.3197 H       1  UNL1        0.2105
     39 C          25.1789   76.8582   -1.6682 C.2     1  UNL1        0.2231
     40 C          25.2522   77.2973   -0.2293 C.3     1  UNL1        0.0946
     41 N          24.0290   76.3601   -2.1639 N.am    1  UNL1       -0.2994
     42 O          26.1555   76.9527   -2.3820 O.2     1  UNL1       -0.2751
     43 H          23.2482   76.2835   -1.5933 H       1  UNL1        0.1496
     44 C          22.6402   73.8277   -7.0430 C.3     1  UNL1        0.1693
     45 O          22.9341   72.4291   -7.0523 O.3     1  UNL1       -0.3794
     46 H          22.9293   72.0315   -7.9337 H       1  UNL1        0.2105
@<TRIPOS>BOND
     1    29    30    1
     2    30    41    1
     3    30    31    1
     4    31    34    1
     5    31    32    1
     6    32    35    1
     7    32    33    1
     8    33    36    1
     9    33    44    1
    10    39    40    1
    11    39    42    2
    12    39    41   am
    13    41    43    1
    14    29    28    1
    15    34    37    1
    16    35    38    1
    17    29    36    1
    18    44    45    1
    19    45    46    1
    20    15     6    1
    21    15    16   ar
    22    16    21    2
    23    16    17   ar
    24    17    23    1
    25    17    18   ar
    26    18    19   ar
    27    19    20   ar
    28    15    20   ar
    29    18    22    2
    30     6     7    1
    31     6    11    1
    32     7     9    1
    33     7     8    1
    34     8    13    1
    35     9    10    1
    36     9    12    1
    37    10     5    1
    38    10    11    1
    39    12    14    1
    40     5     4    1
    41     4     1    1
    42     1     2    1
    43     1    24    1
    44     1     3    2
    45    24    25    1
    46    28    25    1
    47    25    26    1
    48    25    27    2
@<TRIPOS>MOLECULE
UD2
 46 48 0 0 0
SMALL
GASTEIGER

@<TRIPOS>ATOM
      1 P          22.0880   71.5065    0.2887 P.3     1  UNL1        0.2189
      2 O          21.3655   70.1894    0.8673 O.3     1  UNL1       -0.4371
      3 O          23.3733   71.1292   -0.3395 O.2     1  UNL1       -0.5170
      4 O          21.1371   72.2012   -0.8099 O.3     1  UNL1       -0.3112
      5 C          21.6436   72.9833   -1.8930 C.3     1  UNL1        0.1811
      6 C          21.2796   71.4161   -5.1098 C.3     1  UNL1        0.2383
      7 C          22.1315   72.6809   -5.3867 C.3     1  UNL1        0.1895
      8 O          23.0257   72.4643   -6.4800 O.3     1  UNL1       -0.3779
      9 C          22.9115   72.8447   -4.0592 C.3     1  UNL1        0.1713
     10 C          22.0763   72.0568   -3.0320 C.3     1  UNL1        0.1764
     11 O          20.9193   71.5524   -3.7180 O.3     1  UNL1       -0.3308
     12 O          24.2199   72.2832   -4.1768 O.3     1  UNL1       -0.3794
     13 H          23.5801   73.2274   -6.6922 H       1  UNL1        0.2106
     14 H          24.7698   72.7033   -4.8518 H       1  UNL1        0.2105
     15 N          20.0830   71.4052   -5.9542 N.ar    1  UNL1       -0.2551
     16 C          20.0782   70.6914   -7.0941 C.ar    1  UNL1        0.3323
     17 N          18.9925   70.6634   -7.8894 N.ar    1  UNL1       -0.2743
     18 C          17.8851   71.3546   -7.5509 C.ar    1  UNL1        0.2626
     19 C          17.8759   72.1094   -6.3533 C.ar    1  UNL1        0.0795
     20 C          18.9770   72.1161   -5.5728 C.ar    1  UNL1        0.0869
     21 O          21.0696   70.0631   -7.4118 O.2     1  UNL1       -0.2464
     22 O          16.9016   71.3297   -8.2697 O.2     1  UNL1       -0.2670
     23 H          19.0063   70.1445   -8.7084 H       1  UNL1        0.1734
     24 O          22.3616   72.5412    1.4919 O.3     1  UNL1       -0.2703
     25 P          23.4737   72.6375    2.6524 P.3     1  UNL1        0.2208
     26 O          23.6738   71.1878    3.3249 O.3     1  UNL1       -0.4371
     27 O          24.7558   73.0920    2.0709 O.2     1  UNL1       -0.5170
     28 O          22.9902   73.6874    3.7733 O.3     1  UNL1       -0.2865
     29 C          22.4969   73.2877    5.0532 C.3     1  UNL1        0.2611
     30 C          21.2258   74.0753    5.3800 C.3     1  UNL1        0.1582
     31 C          21.5656   75.5669    5.4576 C.3     1  UNL1        0.1625
     32 C          22.6631   75.7757    6.5047 C.3     1  UNL1        0.1686
     33 C          23.8791   74.9223    6.1344 C.3     1  UNL1        0.1760
     34 O          20.3996   76.3029    5.8346 O.3     1  UNL1       -0.3801
     35 O          22.1777   75.3840    7.7901 O.3     1  UNL1       -0.3794
     36 O          23.4881   73.5506    6.0486 O.3     1  UNL1       -0.3263
     37 H          20.5422   77.2570    5.9025 H       1  UNL1        0.2105
     38 H          22.8226   75.4890    8.5035 H       1  UNL1        0.2105
     39 C          20.1691   74.6870    3.2712 C.2     1  UNL1        0.2231
     40 C          19.1451   74.4602    2.1902 C.3     1  UNL1        0.0946
     41 N          20.2294   73.8541    4.3289 N.am    1  UNL1       -0.2994
     42 O          20.9404   75.6201    3.1903 O.2     1  UNL1       -0.2751
     43 H          19.6122   73.1086    4.3946 H       1  UNL1        0.1496
     44 C          24.9579   75.0793    7.2076 C.3     1  UNL1        0.1693
     45 O          24.8604   76.3782    7.7957 O.3     1  UNL1       -0.3794
     46 H          25.5156   76.5480    8.4863 H       1  UNL1        0.2105
@<TRIPOS>BOND
     1    29    30    1
     2    30    41    1
     3    30    31    1
     4    31    34    1
     5    31    32    1
     6    32    35    1
     7    32    33    1
     8    33    36    1
     9    33    44    1
    10    39    40    1
    11    39    42    2
    12    39    41   am
    13    41    43    1
    14    29    28    1
    15    34    37    1
    16    35    38    1
    17    29    36    1
    18    44    45    1
    19    45    46    1
    20    15     6    1
    21    15    16   ar
    22    16    21    2
    23    16    17   ar
    24    17    23    1
    25    17    18   ar
    26    18    19   ar
    27    19    20   ar
    28    15    20   ar
    29    18    22    2
    30     6     7    1
    31     6    11    1
    32     7     9    1
    33     7     8    1
    34     8    13    1
    35     9    10    1
    36     9    12    1
    37    10     5    1
    38    10    11    1
    39    12    14    1
    40     5     4    1
    41     4     1    1
    42     1     2    1
    43     1    24    1
    44     1     3    2
    45    24    25    1
    46    28    25    1
    47    25    26    1
    48    25    27    2
@<TRIPOS>MOLECULE
UD2
 46 48 0 0 0
SMALL
GASTEIGER

@<TRIPOS>ATOM
      1 P          23.0596   71.9264   -2.4432 P.3     1  UNL1        0.2189
      2 O          24.1851   70.9143   -2.9913 O.3     1  UNL1       -0.4371
      3 O          23.7047   73.1652   -1.9554 O.2     1  UNL1       -0.5170
      4 O          22.0367   72.2869   -3.6338 O.3     1  UNL1       -0.3112
      5 C          22.4592   72.5112   -4.9801 C.3     1  UNL1        0.1811
      6 C          19.4389   70.7972   -5.9166 C.3     1  UNL1        0.2383
      7 C          19.2375   72.2475   -6.4247 C.3     1  UNL1        0.1895
      8 O          18.4198   72.2686   -7.5963 O.3     1  UNL1       -0.3779
      9 C          20.6869   72.6807   -6.7549 C.3     1  UNL1        0.1713
     10 C          21.5643   71.7162   -5.9343 C.3     1  UNL1        0.1764
     11 O          20.6810   70.8681   -5.1833 O.3     1  UNL1       -0.3308
     12 O          20.9471   72.5290   -8.1513 O.3     1  UNL1       -0.3794
     13 H          18.2643   73.1541   -7.9518 H       1  UNL1        0.2106
     14 H          20.3814   73.0699   -8.7186 H       1  UNL1        0.2105
     15 N          18.3395   70.4029   -5.0329 N.ar    1  UNL1       -0.2551
     16 C          17.2526   69.8019   -5.5489 C.ar    1  UNL1        0.3323
     17 N          16.2272   69.4289   -4.7604 N.ar    1  UNL1       -0.2743
     18 C          16.2766   69.6528   -3.4315 C.ar    1  UNL1        0.2626
     19 C          17.4151   70.2836   -2.8748 C.ar    1  UNL1        0.0795
     20 C          18.4303   70.6431   -3.6883 C.ar    1  UNL1        0.0869
     21 O          17.1945   69.5935   -6.7454 O.2     1  UNL1       -0.2464
     22 O          15.3494   69.3153   -2.7167 O.2     1  UNL1       -0.2670
     23 H          15.4505   68.9978   -5.1490 H       1  UNL1        0.1734
     24 O          22.2530   71.2297   -1.2361 O.3     1  UNL1       -0.2703
     25 P          22.4742   71.1497    0.3569 P.3     1  UNL1        0.2208
     26 O          21.6678   69.8869    0.9475 O.3     1  UNL1       -0.4371
     27 O          23.9162   70.9931    0.6476 O.2     1  UNL1       -0.5170
     28 O          21.9318   72.5018    1.0425 O.3     1  UNL1       -0.2865
     29 C          20.7566   72.5459    1.8539 C.3     1  UNL1        0.2611
     30 C          19.9142   73.7641    1.4678 C.3     1  UNL1        0.1582
     31 C          20.7182   75.0383    1.7441 C.3     1  UNL1        0.1625
     32 C          21.1288   75.0603    3.2190 C.3     1  UNL1        0.1686
     33 C          21.9246   73.7918    3.5376 C.3     1  UNL1        0.1760
     34 O          19.9123   76.1831    1.4555 O.3     1  UNL1       -0.3801
     35 O          19.9601   75.1103    4.0394 O.3     1  UNL1       -0.3794
     36 O          21.1314   72.6438    3.2295 O.3     1  UNL1       -0.3263
     37 H          20.3595   77.0269    1.6077 H       1  UNL1        0.2105
     38 H          20.1456   75.1259    4.9888 H       1  UNL1        0.2105
     39 C          18.3321   73.9942   -0.3711 C.2     1  UNL1        0.2231
     40 C          17.9870   73.9244   -1.8355 C.3     1  UNL1        0.0946
     41 N          19.5792   73.6957    0.0432 N.am    1  UNL1       -0.2994
     42 O          17.4870   74.3193    0.4366 O.2     1  UNL1       -0.2751
     43 H          20.2549   73.4348   -0.6022 H       1  UNL1        0.1496
     44 C          22.2874   73.7775    5.0237 C.3     1  UNL1        0.1693
     45 O          22.4069   72.4260    5.4727 O.3     1  UNL1       -0.3794
     46 H          22.6358   72.3405    6.4082 H       1  UNL1        0.2105
@<TRIPOS>BOND
     1    29    30    1
     2    30    41    1
     3    30    31    1
     4    31    34    1
     5    31    32    1
     6    32    35    1
     7    32    33    1
     8    33    36    1
     9    33    44    1
    10    39    40    1
    11    39    42    2
    12    39    41   am
    13    41    43    1
    14    29    28    1
    15    34    37    1
    16    35    38    1
    17    29    36    1
    18    44    45    1
    19    45    46    1
    20    15     6    1
    21    15    16   ar
    22    16    21    2
    23    16    17   ar
    24    17    23    1
    25    17    18   ar
    26    18    19   ar
    27    19    20   ar
    28    15    20   ar
    29    18    22    2
    30     6     7    1
    31     6    11    1
    32     7     9    1
    33     7     8    1
    34     8    13    1
    35     9    10    1
    36     9    12    1
    37    10     5    1
    38    10    11    1
    39    12    14    1
    40     5     4    1
    41     4     1    1
    42     1     2    1
    43     1    24    1
    44     1     3    2
    45    24    25    1
    46    28    25    1
    47    25    26    1
    48    25    27    2
@<TRIPOS>MOLECULE
UD2
 46 48 0 0 0
SMALL
GASTEIGER

@<TRIPOS>ATOM
      1 P          22.0365   72.7374   -6.1794 P.3     1  UNL1        0.2189
      2 O          23.1908   72.6971   -7.3007 O.3     1  UNL1       -0.4371
      3 O          21.7743   74.1406   -5.7906 O.2     1  UNL1       -0.5170
      4 O          20.6892   72.0842   -6.7727 O.3     1  UNL1       -0.3112
      5 C          20.6325   71.4442   -8.0489 C.3     1  UNL1        0.1811
      6 C          17.4915   70.1391   -6.8797 C.3     1  UNL1        0.2383
      7 C          17.1027   71.1863   -7.9541 C.3     1  UNL1        0.1895
      8 O          15.8878   70.8175   -8.6096 O.3     1  UNL1       -0.3779
      9 C          18.3020   71.1112   -8.9305 C.3     1  UNL1        0.1713
     10 C          19.4344   70.4924   -8.0890 C.3     1  UNL1        0.1764
     11 O          18.9223   70.2952   -6.7615 O.3     1  UNL1       -0.3308
     12 O          17.9882   70.2711  -10.0425 O.3     1  UNL1       -0.3794
     13 H          15.6026   71.4420   -9.2903 H       1  UNL1        0.2106
     14 H          17.2431   70.5826  -10.5738 H       1  UNL1        0.2105
     15 N          16.8326   70.4377   -5.6062 N.ar    1  UNL1       -0.2551
     16 C          16.4479   69.4302   -4.8026 C.ar    1  UNL1        0.3323
     17 N          15.8401   69.6753   -3.6267 N.ar    1  UNL1       -0.2743
     18 C          15.6083   70.9444   -3.2341 C.ar    1  UNL1        0.2626
     19 C          16.0088   72.0147   -4.0696 C.ar    1  UNL1        0.0795
     20 C          16.6200   71.7399   -5.2412 C.ar    1  UNL1        0.0869
     21 O          16.6507   68.2809   -5.1437 O.2     1  UNL1       -0.2464
     22 O          15.0586   71.1676   -2.1699 O.2     1  UNL1       -0.2670
     23 H          15.5681   68.9371   -3.0599 H       1  UNL1        0.1734
     24 O          22.5132   71.9023   -4.8877 O.3     1  UNL1       -0.2703
     25 P          23.4836   72.2246   -3.6438 P.3     1  UNL1        0.2208
     26 O          24.1136   70.8517   -3.0854 O.3     1  UNL1       -0.4371
     27 O          24.5729   73.1220   -4.0872 O.2     1  UNL1       -0.5170
     28 O          22.6386   72.9419   -2.4759 O.3     1  UNL1       -0.2865
     29 C          21.3445   72.4969   -2.0657 C.3     1  UNL1        0.2611
     30 C          20.4545   73.7085   -1.7784 C.3     1  UNL1        0.1582
     31 C          21.0581   74.5119   -0.6223 C.3     1  UNL1        0.1625
     32 C          21.2062   73.5983    0.5975 C.3     1  UNL1        0.1686
     33 C          22.0675   72.3906    0.2185 C.3     1  UNL1        0.1760
     34 O          20.1950   75.6045   -0.2986 O.3     1  UNL1       -0.3801
     35 O          19.9162   73.1520    1.0194 O.3     1  UNL1       -0.3794
     36 O          21.4664   71.7054   -0.8820 O.3     1  UNL1       -0.3263
     37 H          20.5166   76.1577    0.4265 H       1  UNL1        0.2105
     38 H          19.9343   72.5668    1.7897 H       1  UNL1        0.2105
     39 C          19.1992   75.0969   -3.3387 C.2     1  UNL1        0.2231
     40 C          19.1185   75.9652   -4.5667 C.3     1  UNL1        0.0946
     41 N          20.3767   74.5528   -2.9733 N.am    1  UNL1       -0.2994
     42 O          18.2037   74.8868   -2.6776 O.2     1  UNL1       -0.2751
     43 H          21.1727   74.7197   -3.5020 H       1  UNL1        0.1496
     44 C          22.1709   71.4427    1.4149 C.3     1  UNL1        0.1693
     45 O          21.6316   70.1675    1.0612 O.3     1  UNL1       -0.3794
     46 H          21.6642   69.5146    1.7737 H       1  UNL1        0.2105
@<TRIPOS>BOND
     1    29    30    1
     2    30    41    1
     3    30    31    1
     4    31    34    1
     5    31    32    1
     6    32    35    1
     7    32    33    1
     8    33    36    1
     9    33    44    1
    10    39    40    1
    11    39    42    2
    12    39    41   am
    13    41    43    1
    14    29    28    1
    15    34    37    1
    16    35    38    1
    17    29    36    1
    18    44    45    1
    19    45    46    1
    20    15     6    1
    21    15    16   ar
    22    16    21    2
    23    16    17   ar
    24    17    23    1
    25    17    18   ar
    26    18    19   ar
    27    19    20   ar
    28    15    20   ar
    29    18    22    2
    30     6     7    1
    31     6    11    1
    32     7     9    1
    33     7     8    1
    34     8    13    1
    35     9    10    1
    36     9    12    1
    37    10     5    1
    38    10    11    1
    39    12    14    1
    40     5     4    1
    41     4     1    1
    42     1     2    1
    43     1    24    1
    44     1     3    2
    45    24    25    1
    46    28    25    1
    47    25    26    1
    48    25    27    2
@<TRIPOS>MOLECULE
UD2
 46 48 0 0 0
SMALL
GASTEIGER

@<TRIPOS>ATOM
      1 P          15.7728   70.5141   -2.7916 P.3     1  UNL1        0.2189
      2 O          15.9197   69.1338   -3.6069 O.3     1  UNL1       -0.4371
      3 O          15.4417   71.6090   -3.7298 O.2     1  UNL1       -0.5170
      4 O          14.5982   70.3696   -1.6993 O.3     1  UNL1       -0.3112
      5 C          14.7779   69.7031   -0.4483 C.3     1  UNL1        0.1811
      6 C          12.7991   67.2121    1.2297 C.3     1  UNL1        0.2383
      7 C          11.7920   68.3352    0.8739 C.3     1  UNL1        0.1895
      8 O          10.4887   67.7971    0.6423 O.3     1  UNL1       -0.3779
      9 C          12.3929   68.9090   -0.4326 C.3     1  UNL1        0.1713
     10 C          13.8697   68.4723   -0.3915 C.3     1  UNL1        0.1764
     11 O          14.0741   67.7708    0.8453 O.3     1  UNL1       -0.3308
     12 O          11.7368   68.3491   -1.5714 O.3     1  UNL1       -0.3794
     13 H           9.8231   68.4610    0.4168 H       1  UNL1        0.2106
     14 H          10.7909   68.5433   -1.6163 H       1  UNL1        0.2105
     15 N          12.7710   66.9303    2.6666 N.ar    1  UNL1       -0.2551
     16 C          12.7072   67.9475    3.5441 C.ar    1  UNL1        0.3323
     17 N          12.6803   67.7178    4.8703 N.ar    1  UNL1       -0.2743
     18 C          12.7153   66.4546    5.3412 C.ar    1  UNL1        0.2626
     19 C          12.7814   65.3742    4.4287 C.ar    1  UNL1        0.0795
     20 C          12.8029   65.6336    3.1044 C.ar    1  UNL1        0.0869
     21 O          12.6748   69.0916    3.1338 O.2     1  UNL1       -0.2464
     22 O          12.6905   66.2453    6.5412 O.2     1  UNL1       -0.2670
     23 H          12.6354   68.4628    5.4892 H       1  UNL1        0.1734
     24 O          17.1604   70.8473   -2.0455 O.3     1  UNL1       -0.2703
     25 P          18.4054   71.8126   -2.3793 P.3     1  UNL1        0.2208
     26 O          18.1355   73.2716   -1.7531 O.3     1  UNL1       -0.4371
     27 O          19.6401   71.2459   -1.7939 O.2     1  UNL1       -0.5170
     28 O          18.5755   71.9363   -3.9756 O.3     1  UNL1       -0.2865
     29 C          19.3325   71.0063   -4.7523 C.3     1  UNL1        0.2611
     30 C          20.3191   71.7667   -5.6417 C.3     1  UNL1        0.1582
     31 C          19.5367   72.6557   -6.6133 C.3     1  UNL1        0.1625
     32 C          18.5761   71.7832   -7.4259 C.3     1  UNL1        0.1686
     33 C          17.6564   71.0220   -6.4675 C.3     1  UNL1        0.1760
     34 O          20.4475   73.3139   -7.4968 O.3     1  UNL1       -0.3801
     35 O          19.3239   70.8528   -8.2111 O.3     1  UNL1       -0.3794
     36 O          18.4479   70.2391   -5.5715 O.3     1  UNL1       -0.3263
     37 H          20.0197   73.8953   -8.1403 H       1  UNL1        0.2105
     38 H          18.7778   70.2656   -8.7524 H       1  UNL1        0.2105
     39 C          22.4881   72.7518   -5.1289 C.2     1  UNL1        0.2231
     40 C          23.3822   73.6086   -4.2715 C.3     1  UNL1        0.0946
     41 N          21.1883   72.6001   -4.8071 N.am    1  UNL1       -0.2994
     42 O          22.9379   72.1975   -6.1100 O.2     1  UNL1       -0.2751
     43 H          20.8284   73.0423   -4.0222 H       1  UNL1        0.1496
     44 C          16.7332   70.1026   -7.2692 C.3     1  UNL1        0.1693
     45 O          16.4561   70.6952   -8.5398 O.3     1  UNL1       -0.3794
     46 H          15.8749   70.1658   -9.1029 H       1  UNL1        0.2105
@<TRIPOS>BOND
     1    29    30    1
     2    30    41    1
     3    30    31    1
     4    31    34    1
     5    31    32    1
     6    32    35    1
     7    32    33    1
     8    33    36    1
     9    33    44    1
    10    39    40    1
    11    39    42    2
    12    39    41   am
    13    41    43    1
    14    29    28    1
    15    34    37    1
    16    35    38    1
    17    29    36    1
    18    44    45    1
    19    45    46    1
    20    15     6    1
    21    15    16   ar
    22    16    21    2
    23    16    17   ar
    24    17    23    1
    25    17    18   ar
    26    18    19   ar
    27    19    20   ar
    28    15    20   ar
    29    18    22    2
    30     6     7    1
    31     6    11    1
    32     7     9    1
    33     7     8    1
    34     8    13    1
    35     9    10    1
    36     9    12    1
    37    10     5    1
    38    10    11    1
    39    12    14    1
    40     5     4    1
    41     4     1    1
    42     1     2    1
    43     1    24    1
    44     1     3    2
    45    24    25    1
    46    28    25    1
    47    25    26    1
    48    25    27    2
