@<TRIPOS>MOLECULE
UD2
 46 48 0 0 0
SMALL
GASTEIGER

@<TRIPOS>ATOM
      1 P          21.6052   70.8663   -2.6167 P.3     1  UNL1        0.2189
      2 O          21.2697   69.3566   -3.0634 O.3     1  UNL1       -0.4371
      3 O          22.1233   71.6216   -3.7786 O.2     1  UNL1       -0.5170
      4 O          20.2659   71.5743   -2.0702 O.3     1  UNL1       -0.3112
      5 C          19.7357   72.7749   -2.6348 C.3     1  UNL1        0.1811
      6 C          17.7011   71.5458   -5.3341 C.3     1  UNL1        0.2383
      7 C          17.8441   70.3384   -4.3729 C.3     1  UNL1        0.1895
      8 O          16.6863   69.5028   -4.4277 O.3     1  UNL1       -0.3779
      9 C          17.9595   71.0326   -2.9937 C.3     1  UNL1        0.1713
     10 C          18.4074   72.4676   -3.3307 C.3     1  UNL1        0.1764
     11 O          18.5739   72.5403   -4.7556 O.3     1  UNL1       -0.3308
     12 O          16.6923   71.0456   -2.3342 O.3     1  UNL1       -0.3794
     13 H          16.7283   68.7333   -3.8440 H       1  UNL1        0.2106
     14 H          16.3346   70.1665   -2.1505 H       1  UNL1        0.2105
     15 N          18.1482   71.1877   -6.6820 N.ar    1  UNL1       -0.2551
     16 C          17.2517   70.7649   -7.5911 C.ar    1  UNL1        0.3323
     17 N          17.6345   70.4290   -8.8373 N.ar    1  UNL1       -0.2743
     18 C          18.9319   70.5143   -9.1949 C.ar    1  UNL1        0.2626
     19 C          19.8862   70.9588   -8.2484 C.ar    1  UNL1        0.0795
     20 C          19.4737   71.2930   -7.0075 C.ar    1  UNL1        0.0869
     21 O          16.0785   70.6833   -7.2826 O.2     1  UNL1       -0.2464
     22 O          19.2796   70.2110  -10.3226 O.2     1  UNL1       -0.2670
     23 H          16.9753   70.1249   -9.4801 H       1  UNL1        0.1734
     24 O          22.7154   70.8471   -1.4503 O.3     1  UNL1       -0.2703
     25 P          22.6945   70.4350    0.1062 P.3     1  UNL1        0.2208
     26 O          21.3725   69.5681    0.4136 O.3     1  UNL1       -0.4371
     27 O          23.8954   69.6301    0.4198 O.2     1  UNL1       -0.5170
     28 O          22.6875   71.7652    1.0134 O.3     1  UNL1       -0.2865
     29 C          21.8019   72.8619    0.7801 C.3     1  UNL1        0.2611
     30 C          22.6171   74.1287    0.5096 C.3     1  UNL1        0.1582
     31 C          23.4534   74.4617    1.7490 C.3     1  UNL1        0.1625
     32 C          22.5214   74.6175    2.9537 C.3     1  UNL1        0.1686
     33 C          21.7097   73.3314    3.1301 C.3     1  UNL1        0.1760
     34 O          24.1621   75.6840    1.5322 O.3     1  UNL1       -0.3801
     35 O          21.6348   75.7159    2.7329 O.3     1  UNL1       -0.3794
     36 O          20.9795   73.0627    1.9315 O.3     1  UNL1       -0.3263
     37 H          24.7141   75.9558    2.2783 H       1  UNL1        0.2105
     38 H          21.0137   75.8728    3.4578 H       1  UNL1        0.2105
     39 C          23.2700   74.5328   -1.8030 C.2     1  UNL1        0.2231
     40 C          24.1822   74.3029   -2.9793 C.3     1  UNL1        0.0946
     41 N          23.5048   73.9044   -0.6342 N.am    1  UNL1       -0.2994
     42 O          22.3229   75.2841   -1.9073 O.2     1  UNL1       -0.2751
     43 H          24.2612   73.3029   -0.5507 H       1  UNL1        0.1496
     44 C          20.7331   73.5008    4.2955 C.3     1  UNL1        0.1693
     45 O          21.3260   72.9929    5.4925 O.3     1  UNL1       -0.3794
     46 H          20.7616   73.0677    6.2741 H       1  UNL1        0.2105
@<TRIPOS>BOND
     1    29    30    1
     2    30    41    1
     3    30    31    1
     4    31    34    1
     5    31    32    1
     6    32    35    1
     7    32    33    1
     8    33    36    1
     9    33    44    1
    10    39    40    1
    11    39    42    2
    12    39    41   am
    13    41    43    1
    14    29    28    1
    15    34    37    1
    16    35    38    1
    17    29    36    1
    18    44    45    1
    19    45    46    1
    20    15     6    1
    21    15    16   ar
    22    16    21    2
    23    16    17   ar
    24    17    23    1
    25    17    18   ar
    26    18    19   ar
    27    19    20   ar
    28    15    20   ar
    29    18    22    2
    30     6     7    1
    31     6    11    1
    32     7     9    1
    33     7     8    1
    34     8    13    1
    35     9    10    1
    36     9    12    1
    37    10     5    1
    38    10    11    1
    39    12    14    1
    40     5     4    1
    41     4     1    1
    42     1     2    1
    43     1    24    1
    44     1     3    2
    45    24    25    1
    46    28    25    1
    47    25    26    1
    48    25    27    2
@<TRIPOS>MOLECULE
UD2
 46 48 0 0 0
SMALL
GASTEIGER

@<TRIPOS>ATOM
      1 P          22.9042   72.0687   -3.3312 P.3     1  UNL1        0.2189
      2 O          23.4786   70.5651   -3.3044 O.3     1  UNL1       -0.4371
      3 O          23.5982   72.8440   -4.3829 O.2     1  UNL1       -0.5170
      4 O          21.3247   72.0341   -3.6440 O.3     1  UNL1       -0.3112
      5 C          20.3292   72.0370   -2.6191 C.3     1  UNL1        0.1811
      6 C          18.0159   71.3417   -5.2839 C.3     1  UNL1        0.2383
      7 C          18.0301   70.0467   -4.4324 C.3     1  UNL1        0.1895
      8 O          16.7637   69.3871   -4.4859 O.3     1  UNL1       -0.3779
      9 C          18.3078   70.5949   -3.0113 C.3     1  UNL1        0.1713
     10 C          18.9396   71.9782   -3.2581 C.3     1  UNL1        0.1764
     11 O          19.0478   72.1516   -4.6800 O.3     1  UNL1       -0.3308
     12 O          17.0878   70.7251   -2.2796 O.3     1  UNL1       -0.3794
     13 H          16.7228   68.5711   -3.9692 H       1  UNL1        0.2106
     14 H          16.6174   69.8912   -2.1462 H       1  UNL1        0.2105
     15 N          18.3436   71.0446   -6.6801 N.ar    1  UNL1       -0.2551
     16 C          17.3562   70.7863   -7.5560 C.ar    1  UNL1        0.3323
     17 N          17.6284   70.5100   -8.8451 N.ar    1  UNL1       -0.2743
     18 C          18.9047   70.4900   -9.2801 C.ar    1  UNL1        0.2626
     19 C          19.9539   70.7610   -8.3692 C.ar    1  UNL1        0.0795
     20 C          19.6518   71.0391   -7.0835 C.ar    1  UNL1        0.0869
     21 O          16.2008   70.8011   -7.1777 O.2     1  UNL1       -0.2464
     22 O          19.1523   70.2404  -10.4467 O.2     1  UNL1       -0.2670
     23 H          16.9046   70.3248   -9.4631 H       1  UNL1        0.1734
     24 O          23.1519   72.7637   -1.8998 O.3     1  UNL1       -0.2703
     25 P          23.2932   74.2905   -1.4080 P.3     1  UNL1        0.2208
     26 O          24.7563   74.8440   -1.7909 O.3     1  UNL1       -0.4371
     27 O          22.2634   75.1200   -2.0712 O.2     1  UNL1       -0.5170
     28 O          23.0932   74.3607    0.1882 O.3     1  UNL1       -0.2865
     29 C          21.8284   74.1663    0.8236 C.3     1  UNL1        0.2611
     30 C          21.9650   74.4286    2.3253 C.3     1  UNL1        0.1582
     31 C          22.9468   73.4168    2.9243 C.3     1  UNL1        0.1625
     32 C          22.4489   72.0001    2.6254 C.3     1  UNL1        0.1686
     33 C          22.2936   71.8314    1.1117 C.3     1  UNL1        0.1760
     34 O          23.0245   73.6072    4.3389 O.3     1  UNL1       -0.3801
     35 O          21.1864   71.7933    3.2615 O.3     1  UNL1       -0.3794
     36 O          21.3920   72.8218    0.6137 O.3     1  UNL1       -0.3263
     37 H          23.6303   72.9992    4.7845 H       1  UNL1        0.2105
     38 H          20.8100   70.9144    3.1138 H       1  UNL1        0.2105
     39 C          23.7944   76.0031    2.6603 C.2     1  UNL1        0.2231
     40 C          24.3139   77.3994    2.8816 C.3     1  UNL1        0.0946
     41 N          22.4695   75.7871    2.5409 N.am    1  UNL1       -0.2994
     42 O          24.5688   75.0717    2.5893 O.2     1  UNL1       -0.2751
     43 H          21.8500   76.5313    2.5986 H       1  UNL1        0.1496
     44 C          21.7396   70.4380    0.8082 C.3     1  UNL1        0.1693
     45 O          22.7996   69.4810    0.8621 O.3     1  UNL1       -0.3794
     46 H          22.5205   68.5734    0.6792 H       1  UNL1        0.2105
@<TRIPOS>BOND
     1    29    30    1
     2    30    41    1
     3    30    31    1
     4    31    34    1
     5    31    32    1
     6    32    35    1
     7    32    33    1
     8    33    36    1
     9    33    44    1
    10    39    40    1
    11    39    42    2
    12    39    41   am
    13    41    43    1
    14    29    28    1
    15    34    37    1
    16    35    38    1
    17    29    36    1
    18    44    45    1
    19    45    46    1
    20    15     6    1
    21    15    16   ar
    22    16    21    2
    23    16    17   ar
    24    17    23    1
    25    17    18   ar
    26    18    19   ar
    27    19    20   ar
    28    15    20   ar
    29    18    22    2
    30     6     7    1
    31     6    11    1
    32     7     9    1
    33     7     8    1
    34     8    13    1
    35     9    10    1
    36     9    12    1
    37    10     5    1
    38    10    11    1
    39    12    14    1
    40     5     4    1
    41     4     1    1
    42     1     2    1
    43     1    24    1
    44     1     3    2
    45    24    25    1
    46    28    25    1
    47    25    26    1
    48    25    27    2
@<TRIPOS>MOLECULE
UD2
 46 48 0 0 0
SMALL
GASTEIGER

@<TRIPOS>ATOM
      1 P          21.9217   74.3431   -6.3170 P.3     1  UNL1        0.2189
      2 O          23.2343   75.2694   -6.4192 O.3     1  UNL1       -0.4371
      3 O          20.7190   75.1583   -6.5960 O.2     1  UNL1       -0.5170
      4 O          22.0225   73.1493   -7.3933 O.3     1  UNL1       -0.3112
      5 C          21.5239   73.2617   -8.7275 C.3     1  UNL1        0.1811
      6 C          18.8356   71.1689   -7.5742 C.3     1  UNL1        0.2383
      7 C          18.1712   72.5427   -7.8454 C.3     1  UNL1        0.1895
      8 O          16.8106   72.3802   -8.2503 O.3     1  UNL1       -0.3779
      9 C          19.0312   73.0961   -9.0079 C.3     1  UNL1        0.1713
     10 C          20.3473   72.3006   -8.9145 C.3     1  UNL1        0.1764
     11 O          20.2414   71.4304   -7.7765 O.3     1  UNL1       -0.3308
     12 O          18.3892   72.8563  -10.2614 O.3     1  UNL1       -0.3794
     13 H          16.3517   73.2117   -8.4310 H       1  UNL1        0.2106
     14 H          17.5279   73.2858  -10.3515 H       1  UNL1        0.2105
     15 N          18.5837   70.7369   -6.1976 N.ar    1  UNL1       -0.2551
     16 C          17.4326   70.1103   -5.8959 C.ar    1  UNL1        0.3323
     17 N          17.1745   69.7025   -4.6392 N.ar    1  UNL1       -0.2743
     18 C          18.0744   69.9165   -3.6579 C.ar    1  UNL1        0.2626
     19 C          19.2908   70.5739   -3.9616 C.ar    1  UNL1        0.0795
     20 C          19.5250   70.9682   -5.2309 C.ar    1  UNL1        0.0869
     21 O          16.6121   69.9105   -6.7707 O.2     1  UNL1       -0.2464
     22 O          17.8422   69.5475   -2.5202 O.2     1  UNL1       -0.2670
     23 H          16.3390   69.2532   -4.4387 H       1  UNL1        0.1734
     24 O          21.8173   73.7214   -4.8352 O.3     1  UNL1       -0.2703
     25 P          22.8700   73.0144   -3.8428 P.3     1  UNL1        0.2208
     26 O          22.8379   71.4209   -4.0740 O.3     1  UNL1       -0.4371
     27 O          24.2302   73.5253   -4.1208 O.2     1  UNL1       -0.5170
     28 O          22.4739   73.3439   -2.3173 O.3     1  UNL1       -0.2865
     29 C          21.3013   72.8241   -1.6878 C.3     1  UNL1        0.2611
     30 C          20.8334   73.7930   -0.5992 C.3     1  UNL1        0.1582
     31 C          21.9229   73.9096    0.4712 C.3     1  UNL1        0.1625
     32 C          22.2289   72.5160    1.0268 C.3     1  UNL1        0.1686
     33 C          22.6432   71.5962   -0.1248 C.3     1  UNL1        0.1760
     34 O          21.4646   74.7553    1.5285 O.3     1  UNL1       -0.3801
     35 O          21.0636   71.9893    1.6638 O.3     1  UNL1       -0.3794
     36 O          21.5992   71.5562   -1.0997 O.3     1  UNL1       -0.3263
     37 H          22.1061   74.8746    2.2423 H       1  UNL1        0.2105
     38 H          21.1850   71.1060    2.0393 H       1  UNL1        0.2105
     39 C          19.3418   75.6308   -1.1782 C.2     1  UNL1        0.2231
     40 C          19.0854   76.9851   -1.7856 C.3     1  UNL1        0.0946
     41 N          20.5848   75.1102   -1.1904 N.am    1  UNL1       -0.2994
     42 O          18.4290   75.0077   -0.6775 O.2     1  UNL1       -0.2751
     43 H          21.3147   75.6076   -1.5915 H       1  UNL1        0.1496
     44 C          22.8931   70.1862    0.4135 C.3     1  UNL1        0.1693
     45 O          21.6584   69.4681    0.4615 O.3     1  UNL1       -0.3794
     46 H          21.7413   68.5639    0.7940 H       1  UNL1        0.2105
@<TRIPOS>BOND
     1    29    30    1
     2    30    41    1
     3    30    31    1
     4    31    34    1
     5    31    32    1
     6    32    35    1
     7    32    33    1
     8    33    36    1
     9    33    44    1
    10    39    40    1
    11    39    42    2
    12    39    41   am
    13    41    43    1
    14    29    28    1
    15    34    37    1
    16    35    38    1
    17    29    36    1
    18    44    45    1
    19    45    46    1
    20    15     6    1
    21    15    16   ar
    22    16    21    2
    23    16    17   ar
    24    17    23    1
    25    17    18   ar
    26    18    19   ar
    27    19    20   ar
    28    15    20   ar
    29    18    22    2
    30     6     7    1
    31     6    11    1
    32     7     9    1
    33     7     8    1
    34     8    13    1
    35     9    10    1
    36     9    12    1
    37    10     5    1
    38    10    11    1
    39    12    14    1
    40     5     4    1
    41     4     1    1
    42     1     2    1
    43     1    24    1
    44     1     3    2
    45    24    25    1
    46    28    25    1
    47    25    26    1
    48    25    27    2
@<TRIPOS>MOLECULE
UD2
 46 48 0 0 0
SMALL
GASTEIGER

@<TRIPOS>ATOM
      1 P          21.9346   70.3215   -0.2950 P.3     1  UNL1        0.2189
      2 O          22.3811   68.9079    0.3325 O.3     1  UNL1       -0.4371
      3 O          23.1169   71.0047   -0.8643 O.2     1  UNL1       -0.5170
      4 O          20.8471   70.0732   -1.4566 O.3     1  UNL1       -0.3112
      5 C          20.9733   70.6223   -2.7696 C.3     1  UNL1        0.1811
      6 C          18.4178   70.9663   -5.2772 C.3     1  UNL1        0.2383
      7 C          18.1069   69.6139   -4.5869 C.3     1  UNL1        0.1895
      8 O          16.7037   69.3443   -4.6020 O.3     1  UNL1       -0.3779
      9 C          18.6058   69.8637   -3.1425 C.3     1  UNL1        0.1713
     10 C          19.5926   71.0385   -3.2829 C.3     1  UNL1        0.1764
     11 O          19.6692   71.3684   -4.6789 O.3     1  UNL1       -0.3308
     12 O          17.5152   70.2247   -2.2934 O.3     1  UNL1       -0.3794
     13 H          16.4590   68.5085   -4.1821 H       1  UNL1        0.2106
     14 H          16.8338   69.5434   -2.2159 H       1  UNL1        0.2105
     15 N          18.5713   70.7845   -6.7223 N.ar    1  UNL1       -0.2551
     16 C          17.4802   70.7322   -7.5070 C.ar    1  UNL1        0.3323
     17 N          17.5916   70.5658   -8.8382 N.ar    1  UNL1       -0.2743
     18 C          18.8082   70.4500   -9.4083 C.ar    1  UNL1        0.2626
     19 C          19.9653   70.5043   -8.5944 C.ar    1  UNL1        0.0795
     20 C          19.8242   70.6762   -7.2632 C.ar    1  UNL1        0.0869
     21 O          16.3769   70.8354   -7.0066 O.2     1  UNL1       -0.2464
     22 O          18.9104   70.2997  -10.6131 O.2     1  UNL1       -0.2670
     23 H          16.7946   70.5290   -9.3892 H       1  UNL1        0.1734
     24 O          21.2869   71.2403    0.8580 O.3     1  UNL1       -0.2703
     25 P          21.8883   72.0412    2.1189 P.3     1  UNL1        0.2208
     26 O          20.6945   72.4240    3.1299 O.3     1  UNL1       -0.4371
     27 O          22.8738   71.1896    2.8202 O.2     1  UNL1       -0.5170
     28 O          22.6095   73.3862    1.6057 O.3     1  UNL1       -0.2865
     29 C          22.3681   74.6692    2.1863 C.3     1  UNL1        0.2611
     30 C          22.9919   75.7545    1.3056 C.3     1  UNL1        0.1582
     31 C          24.5086   75.5465    1.2513 C.3     1  UNL1        0.1625
     32 C          25.0668   75.5639    2.6769 C.3     1  UNL1        0.1686
     33 C          24.3628   74.4856    3.5049 C.3     1  UNL1        0.1760
     34 O          25.1075   76.5984    0.4910 O.3     1  UNL1       -0.3801
     35 O          24.8354   76.8454    3.2649 O.3     1  UNL1       -0.3794
     36 O          22.9532   74.7197    3.4891 O.3     1  UNL1       -0.3263
     37 H          26.0691   76.5296    0.4145 H       1  UNL1        0.2105
     38 H          25.1635   76.9280    4.1712 H       1  UNL1        0.2105
     39 C          23.0629   74.9287   -0.9859 C.2     1  UNL1        0.2231
     40 C          22.4927   74.8367   -2.3769 C.3     1  UNL1        0.0946
     41 N          22.4368   75.6657   -0.0474 N.am    1  UNL1       -0.2994
     42 O          24.0866   74.3390   -0.7096 O.2     1  UNL1       -0.2751
     43 H          21.6188   76.1382   -0.2681 H       1  UNL1        0.1496
     44 C          24.8724   74.5362    4.9465 C.3     1  UNL1        0.1693
     45 O          26.2823   74.7692    4.9463 O.3     1  UNL1       -0.3794
     46 H          26.6744   74.8133    5.8290 H       1  UNL1        0.2105
@<TRIPOS>BOND
     1    29    30    1
     2    30    41    1
     3    30    31    1
     4    31    34    1
     5    31    32    1
     6    32    35    1
     7    32    33    1
     8    33    36    1
     9    33    44    1
    10    39    40    1
    11    39    42    2
    12    39    41   am
    13    41    43    1
    14    29    28    1
    15    34    37    1
    16    35    38    1
    17    29    36    1
    18    44    45    1
    19    45    46    1
    20    15     6    1
    21    15    16   ar
    22    16    21    2
    23    16    17   ar
    24    17    23    1
    25    17    18   ar
    26    18    19   ar
    27    19    20   ar
    28    15    20   ar
    29    18    22    2
    30     6     7    1
    31     6    11    1
    32     7     9    1
    33     7     8    1
    34     8    13    1
    35     9    10    1
    36     9    12    1
    37    10     5    1
    38    10    11    1
    39    12    14    1
    40     5     4    1
    41     4     1    1
    42     1     2    1
    43     1    24    1
    44     1     3    2
    45    24    25    1
    46    28    25    1
    47    25    26    1
    48    25    27    2
@<TRIPOS>MOLECULE
UD2
 46 48 0 0 0
SMALL
GASTEIGER

@<TRIPOS>ATOM
      1 P          22.7596   71.6862   -3.1198 P.3     1  UNL1        0.2189
      2 O          22.9760   72.2095   -1.6130 O.3     1  UNL1       -0.4371
      3 O          23.3511   70.3377   -3.2641 O.2     1  UNL1       -0.5170
      4 O          21.1833   71.6183   -3.4430 O.3     1  UNL1       -0.3112
      5 C          20.2084   72.3710   -2.7188 C.3     1  UNL1        0.1811
      6 C          17.9609   71.3548   -5.3365 C.3     1  UNL1        0.2383
      7 C          18.1120   70.0976   -4.4428 C.3     1  UNL1        0.1895
      8 O          16.9189   69.3117   -4.4621 O.3     1  UNL1       -0.3779
      9 C          18.3416   70.7191   -3.0433 C.3     1  UNL1        0.1713
     10 C          18.8279   72.1501   -3.3420 C.3     1  UNL1        0.1764
     11 O          18.9090   72.2852   -4.7698 O.3     1  UNL1       -0.3308
     12 O          17.1193   70.7498   -2.3045 O.3     1  UNL1       -0.3794
     13 H          16.9644   68.5137   -3.9182 H       1  UNL1        0.2106
     14 H          16.7368   69.8775   -2.1391 H       1  UNL1        0.2105
     15 N          18.3084   71.0452   -6.7252 N.ar    1  UNL1       -0.2551
     16 C          17.3391   70.7135   -7.5966 C.ar    1  UNL1        0.3323
     17 N          17.6296   70.4240   -8.8788 N.ar    1  UNL1       -0.2743
     18 C          18.9063   70.4645   -9.3113 C.ar    1  UNL1        0.2626
     19 C          19.9365   70.8132   -8.4051 C.ar    1  UNL1        0.0795
     20 C          19.6160   71.1028   -7.1264 C.ar    1  UNL1        0.0869
     21 O          16.1836   70.6731   -7.2206 O.2     1  UNL1       -0.2464
     22 O          19.1705   70.2031  -10.4717 O.2     1  UNL1       -0.2670
     23 H          16.9188   70.1856   -9.4936 H       1  UNL1        0.1734
     24 O          23.4743   72.6989   -4.1478 O.3     1  UNL1       -0.2703
     25 P          23.4655   74.2989   -4.3289 P.3     1  UNL1        0.2208
     26 O          22.5290   74.9612   -3.1983 O.3     1  UNL1       -0.4371
     27 O          24.8438   74.8187   -4.1934 O.2     1  UNL1       -0.5170
     28 O          22.8920   74.6708   -5.7868 O.3     1  UNL1       -0.2865
     29 C          23.1962   75.8974   -6.4533 C.3     1  UNL1        0.2611
     30 C          21.9011   76.5436   -6.9510 C.3     1  UNL1        0.1582
     31 C          21.2353   75.6134   -7.9698 C.3     1  UNL1        0.1625
     32 C          22.2193   75.3335   -9.1089 C.3     1  UNL1        0.1686
     33 C          23.5025   74.7337   -8.5278 C.3     1  UNL1        0.1760
     34 O          20.0632   76.2413   -8.4946 O.3     1  UNL1       -0.3801
     35 O          22.5258   76.5536   -9.7860 O.3     1  UNL1       -0.3794
     36 O          24.0543   75.6345   -7.5655 O.3     1  UNL1       -0.3263
     37 H          19.5898   75.7068   -9.1467 H       1  UNL1        0.2105
     38 H          23.1462   76.4511  -10.5212 H       1  UNL1        0.2105
     39 C          20.0593   75.8371   -5.5205 C.2     1  UNL1        0.2231
     40 C          19.1281   76.0578   -4.3574 C.3     1  UNL1        0.0946
     41 N          20.9956   76.7591   -5.8196 N.am    1  UNL1       -0.2994
     42 O          19.9668   74.8288   -6.1891 O.2     1  UNL1       -0.2751
     43 H          21.0693   77.5659   -5.2860 H       1  UNL1        0.1496
     44 C          24.5139   74.5063   -9.6529 C.3     1  UNL1        0.1693
     45 O          25.3678   75.6469   -9.7644 O.3     1  UNL1       -0.3794
     46 H          26.0356   75.5725  -10.4598 H       1  UNL1        0.2105
@<TRIPOS>BOND
     1    29    30    1
     2    30    41    1
     3    30    31    1
     4    31    34    1
     5    31    32    1
     6    32    35    1
     7    32    33    1
     8    33    36    1
     9    33    44    1
    10    39    40    1
    11    39    42    2
    12    39    41   am
    13    41    43    1
    14    29    28    1
    15    34    37    1
    16    35    38    1
    17    29    36    1
    18    44    45    1
    19    45    46    1
    20    15     6    1
    21    15    16   ar
    22    16    21    2
    23    16    17   ar
    24    17    23    1
    25    17    18   ar
    26    18    19   ar
    27    19    20   ar
    28    15    20   ar
    29    18    22    2
    30     6     7    1
    31     6    11    1
    32     7     9    1
    33     7     8    1
    34     8    13    1
    35     9    10    1
    36     9    12    1
    37    10     5    1
    38    10    11    1
    39    12    14    1
    40     5     4    1
    41     4     1    1
    42     1     2    1
    43     1    24    1
    44     1     3    2
    45    24    25    1
    46    28    25    1
    47    25    26    1
    48    25    27    2
@<TRIPOS>MOLECULE
UD2
 46 48 0 0 0
SMALL
GASTEIGER

@<TRIPOS>ATOM
      1 P          22.8266   72.0830   -3.2182 P.3     1  UNL1        0.2189
      2 O          23.4814   70.6129   -3.1795 O.3     1  UNL1       -0.4371
      3 O          23.4912   72.8924   -4.2631 O.2     1  UNL1       -0.5170
      4 O          21.2556   71.9618   -3.5512 O.3     1  UNL1       -0.3112
      5 C          20.2378   72.0962   -2.5574 C.3     1  UNL1        0.1811
      6 C          17.9803   71.3892   -5.2667 C.3     1  UNL1        0.2383
      7 C          17.9738   70.0993   -4.4074 C.3     1  UNL1        0.1895
      8 O          16.7075   69.4418   -4.4838 O.3     1  UNL1       -0.3779
      9 C          18.2224   70.6556   -2.9839 C.3     1  UNL1        0.1713
     10 C          18.8620   72.0362   -3.2255 C.3     1  UNL1        0.1764
     11 O          19.0007   72.2008   -4.6458 O.3     1  UNL1       -0.3308
     12 O          16.9873   70.7925   -2.2791 O.3     1  UNL1       -0.3794
     13 H          16.6540   68.6290   -3.9632 H       1  UNL1        0.2106
     14 H          16.5125   69.9603   -2.1508 H       1  UNL1        0.2105
     15 N          18.3371   71.0831   -6.6538 N.ar    1  UNL1       -0.2551
     16 C          17.3678   70.8252   -7.5498 C.ar    1  UNL1        0.3323
     17 N          17.6668   70.5406   -8.8312 N.ar    1  UNL1       -0.2743
     18 C          18.9522   70.5118   -9.2379 C.ar    1  UNL1        0.2626
     19 C          19.9825   70.7824   -8.3056 C.ar    1  UNL1        0.0795
     20 C          19.6537   71.0688   -7.0283 C.ar    1  UNL1        0.0869
     21 O          16.2044   70.8478   -7.1971 O.2     1  UNL1       -0.2464
     22 O          19.2241   70.2549  -10.3975 O.2     1  UNL1       -0.2670
     23 H          16.9557   70.3559   -9.4640 H       1  UNL1        0.1734
     24 O          23.0175   72.7937   -1.7858 O.3     1  UNL1       -0.2703
     25 P          23.0454   74.3266   -1.2934 P.3     1  UNL1        0.2208
     26 O          24.5241   74.9298   -1.5013 O.3     1  UNL1       -0.4371
     27 O          22.0755   75.1164   -2.0832 O.2     1  UNL1       -0.5170
     28 O          22.6513   74.3963    0.2663 O.3     1  UNL1       -0.2865
     29 C          23.3888   73.7207    1.2865 C.3     1  UNL1        0.2611
     30 C          22.5140   72.6329    1.9144 C.3     1  UNL1        0.1582
     31 C          21.2971   73.2871    2.5760 C.3     1  UNL1        0.1625
     32 C          21.7791   74.3114    3.6070 C.3     1  UNL1        0.1686
     33 C          22.6824   75.3347    2.9136 C.3     1  UNL1        0.1760
     34 O          20.5127   72.2858    3.2281 O.3     1  UNL1       -0.3801
     35 O          22.5134   73.6447    4.6354 O.3     1  UNL1       -0.3794
     36 O          23.7773   74.6580    2.2929 O.3     1  UNL1       -0.3263
     37 H          19.7237   72.6300    3.6688 H       1  UNL1        0.2105
     38 H          22.8505   74.2344    5.3243 H       1  UNL1        0.2105
     39 C          22.4949   70.4271    0.8793 C.2     1  UNL1        0.2231
     40 C          22.0340   69.4718   -0.1902 C.3     1  UNL1        0.0946
     41 N          22.0654   71.7044    0.8737 N.am    1  UNL1       -0.2994
     42 O          23.2534   70.0468    1.7466 O.2     1  UNL1       -0.2751
     43 H          21.4598   72.0091    0.1798 H       1  UNL1        0.1496
     44 C          23.2162   76.3271    3.9483 C.3     1  UNL1        0.1693
     45 O          24.4354   75.8286    4.5028 O.3     1  UNL1       -0.3794
     46 H          24.8315   76.4080    5.1679 H       1  UNL1        0.2105
@<TRIPOS>BOND
     1    29    30    1
     2    30    41    1
     3    30    31    1
     4    31    34    1
     5    31    32    1
     6    32    35    1
     7    32    33    1
     8    33    36    1
     9    33    44    1
    10    39    40    1
    11    39    42    2
    12    39    41   am
    13    41    43    1
    14    29    28    1
    15    34    37    1
    16    35    38    1
    17    29    36    1
    18    44    45    1
    19    45    46    1
    20    15     6    1
    21    15    16   ar
    22    16    21    2
    23    16    17   ar
    24    17    23    1
    25    17    18   ar
    26    18    19   ar
    27    19    20   ar
    28    15    20   ar
    29    18    22    2
    30     6     7    1
    31     6    11    1
    32     7     9    1
    33     7     8    1
    34     8    13    1
    35     9    10    1
    36     9    12    1
    37    10     5    1
    38    10    11    1
    39    12    14    1
    40     5     4    1
    41     4     1    1
    42     1     2    1
    43     1    24    1
    44     1     3    2
    45    24    25    1
    46    28    25    1
    47    25    26    1
    48    25    27    2
@<TRIPOS>MOLECULE
UD2
 46 48 0 0 0
SMALL
GASTEIGER

@<TRIPOS>ATOM
      1 P          21.8917   70.7753   -0.4836 P.3     1  UNL1        0.2189
      2 O          21.4808   69.5729    0.5047 O.3     1  UNL1       -0.4371
      3 O          22.9215   70.3027   -1.4350 O.2     1  UNL1       -0.5170
      4 O          20.5929   71.2670   -1.2991 O.3     1  UNL1       -0.3112
      5 C          20.6420   71.6705   -2.6688 C.3     1  UNL1        0.1811
      6 C          18.1754   71.1932   -5.2428 C.3     1  UNL1        0.2383
      7 C          18.1651   69.8662   -4.4422 C.3     1  UNL1        0.1895
      8 O          16.8664   69.2705   -4.4590 O.3     1  UNL1       -0.3779
      9 C          18.5355   70.3434   -3.0166 C.3     1  UNL1        0.1713
     10 C          19.2229   71.7037   -3.2416 C.3     1  UNL1        0.1764
     11 O          19.2732   71.9283   -4.6595 O.3     1  UNL1       -0.3308
     12 O          17.3588   70.5024   -2.2223 O.3     1  UNL1       -0.3794
     13 H          16.8092   68.4373   -3.9719 H       1  UNL1        0.2106
     14 H          16.8543   69.6873   -2.0977 H       1  UNL1        0.2105
     15 N          18.4227   70.9368   -6.6633 N.ar    1  UNL1       -0.2551
     16 C          17.3840   70.7651   -7.5002 C.ar    1  UNL1        0.3323
     17 N          17.5818   70.5278   -8.8105 N.ar    1  UNL1       -0.2743
     18 C          18.8340   70.4602   -9.3065 C.ar    1  UNL1        0.2626
     19 C          19.9367   70.6400   -8.4371 C.ar    1  UNL1        0.0795
     20 C          19.7089   70.8807   -7.1288 C.ar    1  UNL1        0.0869
     21 O          16.2495   70.8237   -7.0669 O.2     1  UNL1       -0.2464
     22 O          19.0144   70.2459  -10.4923 O.2     1  UNL1       -0.2670
     23 H          16.8217   70.4052   -9.3998 H       1  UNL1        0.1734
     24 O          22.4794   72.0019    0.3784 O.3     1  UNL1       -0.2703
     25 P          21.8873   73.4245    0.8462 P.3     1  UNL1        0.2208
     26 O          22.5841   74.6011   -0.0045 O.3     1  UNL1       -0.4371
     27 O          20.4260   73.4501    0.6175 O.2     1  UNL1       -0.5170
     28 O          22.1898   73.6427    2.4125 O.3     1  UNL1       -0.2865
     29 C          22.3354   74.9348    3.0046 C.3     1  UNL1        0.2611
     30 C          23.7682   75.1044    3.5156 C.3     1  UNL1        0.1582
     31 C          24.0399   74.0609    4.6037 C.3     1  UNL1        0.1625
     32 C          23.0031   74.2202    5.7190 C.3     1  UNL1        0.1686
     33 C          21.5995   74.0846    5.1229 C.3     1  UNL1        0.1760
     34 O          25.3507   74.2591    5.1382 O.3     1  UNL1       -0.3801
     35 O          23.1442   75.5078    6.3219 O.3     1  UNL1       -0.3794
     36 O          21.4229   75.0634    4.0969 O.3     1  UNL1       -0.3263
     37 H          25.5906   73.6311    5.8333 H       1  UNL1        0.2105
     38 H          22.5168   75.6783    7.0384 H       1  UNL1        0.2105
     39 C          25.4221   75.9574    1.9426 C.2     1  UNL1        0.2231
     40 C          26.3891   75.7620    0.8044 C.3     1  UNL1        0.0946
     41 N          24.7084   74.9135    2.4084 N.am    1  UNL1       -0.2994
     42 O          25.2851   77.0553    2.4407 O.2     1  UNL1       -0.2751
     43 H          24.8169   74.0358    2.0098 H       1  UNL1        0.1496
     44 C          20.5563   74.3019    6.2206 C.3     1  UNL1        0.1693
     45 O          19.4832   73.3737    6.0495 O.3     1  UNL1       -0.3794
     46 H          18.7834   73.4541    6.7119 H       1  UNL1        0.2105
@<TRIPOS>BOND
     1    29    30    1
     2    30    41    1
     3    30    31    1
     4    31    34    1
     5    31    32    1
     6    32    35    1
     7    32    33    1
     8    33    36    1
     9    33    44    1
    10    39    40    1
    11    39    42    2
    12    39    41   am
    13    41    43    1
    14    29    28    1
    15    34    37    1
    16    35    38    1
    17    29    36    1
    18    44    45    1
    19    45    46    1
    20    15     6    1
    21    15    16   ar
    22    16    21    2
    23    16    17   ar
    24    17    23    1
    25    17    18   ar
    26    18    19   ar
    27    19    20   ar
    28    15    20   ar
    29    18    22    2
    30     6     7    1
    31     6    11    1
    32     7     9    1
    33     7     8    1
    34     8    13    1
    35     9    10    1
    36     9    12    1
    37    10     5    1
    38    10    11    1
    39    12    14    1
    40     5     4    1
    41     4     1    1
    42     1     2    1
    43     1    24    1
    44     1     3    2
    45    24    25    1
    46    28    25    1
    47    25    26    1
    48    25    27    2
@<TRIPOS>MOLECULE
UD2
 46 48 0 0 0
SMALL
GASTEIGER

@<TRIPOS>ATOM
      1 P          21.9790   70.5201   -0.1838 P.3     1  UNL1        0.2189
      2 O          22.5558   69.1649    0.4659 O.3     1  UNL1       -0.4371
      3 O          23.0794   71.2612   -0.8386 O.2     1  UNL1       -0.5170
      4 O          20.8535   70.1545   -1.2761 O.3     1  UNL1       -0.3112
      5 C          20.9561   70.5260   -2.6520 C.3     1  UNL1        0.1811
      6 C          18.4129   70.9631   -5.1575 C.3     1  UNL1        0.2383
      7 C          18.0710   69.6080   -4.4874 C.3     1  UNL1        0.1895
      8 O          16.6622   69.3698   -4.5082 O.3     1  UNL1       -0.3779
      9 C          18.5730   69.8256   -3.0389 C.3     1  UNL1        0.1713
     10 C          19.5858   70.9801   -3.1609 C.3     1  UNL1        0.1764
     11 O          19.6719   71.3286   -4.5518 O.3     1  UNL1       -0.3308
     12 O          17.4893   70.1983   -2.1860 O.3     1  UNL1       -0.3794
     13 H          16.3984   68.5337   -4.1008 H       1  UNL1        0.2106
     14 H          16.7929   69.5312   -2.1193 H       1  UNL1        0.2105
     15 N          18.5646   70.7990   -6.6049 N.ar    1  UNL1       -0.2551
     16 C          17.4739   70.7817   -7.3916 C.ar    1  UNL1        0.3323
     17 N          17.5837   70.6322   -8.7249 N.ar    1  UNL1       -0.2743
     18 C          18.7984   70.4984   -9.2952 C.ar    1  UNL1        0.2626
     19 C          19.9551   70.5157   -8.4792 C.ar    1  UNL1        0.0795
     20 C          19.8157   70.6714   -7.1458 C.ar    1  UNL1        0.0869
     21 O          16.3723   70.9015   -6.8911 O.2     1  UNL1       -0.2464
     22 O          18.8991   70.3634  -10.5019 O.2     1  UNL1       -0.2670
     23 H          16.7869   70.6208   -9.2774 H       1  UNL1        0.1734
     24 O          21.3282   71.4345    0.9710 O.3     1  UNL1       -0.2703
     25 P          21.9366   72.3541    2.1445 P.3     1  UNL1        0.2208
     26 O          22.8633   71.4533    3.1056 O.3     1  UNL1       -0.4371
     27 O          22.7496   73.4381    1.5510 O.2     1  UNL1       -0.5170
     28 O          20.7339   72.9934    3.0033 O.3     1  UNL1       -0.2865
     29 C          20.6971   74.3691    3.3871 C.3     1  UNL1        0.2611
     30 C          21.5123   74.5646    4.6678 C.3     1  UNL1        0.1582
     31 C          20.8755   73.7493    5.7975 C.3     1  UNL1        0.1625
     32 C          19.4168   74.1831    5.9661 C.3     1  UNL1        0.1686
     33 C          18.6822   74.0022    4.6350 C.3     1  UNL1        0.1760
     34 O          21.5872   73.9837    7.0148 O.3     1  UNL1       -0.3801
     35 O          19.3690   75.5568    6.3557 O.3     1  UNL1       -0.3794
     36 O          19.3431   74.7619    3.6210 O.3     1  UNL1       -0.3263
     37 H          21.2378   73.4972    7.7741 H       1  UNL1        0.2105
     38 H          18.4731   75.9001    6.4802 H       1  UNL1        0.2105
     39 C          23.9195   74.8031    4.9612 C.2     1  UNL1        0.2231
     40 C          25.3324   74.3327    4.7357 C.3     1  UNL1        0.0946
     41 N          22.8864   74.1065    4.4478 N.am    1  UNL1       -0.2994
     42 O          23.7106   75.8099    5.6054 O.2     1  UNL1       -0.2751
     43 H          23.0529   73.3021    3.9318 H       1  UNL1        0.1496
     44 C          17.2392   74.4895    4.7789 C.3     1  UNL1        0.1693
     45 O          16.8151   75.0927    3.5547 O.3     1  UNL1       -0.3794
     46 H          15.9073   75.4254    3.5733 H       1  UNL1        0.2105
@<TRIPOS>BOND
     1    29    30    1
     2    30    41    1
     3    30    31    1
     4    31    34    1
     5    31    32    1
     6    32    35    1
     7    32    33    1
     8    33    36    1
     9    33    44    1
    10    39    40    1
    11    39    42    2
    12    39    41   am
    13    41    43    1
    14    29    28    1
    15    34    37    1
    16    35    38    1
    17    29    36    1
    18    44    45    1
    19    45    46    1
    20    15     6    1
    21    15    16   ar
    22    16    21    2
    23    16    17   ar
    24    17    23    1
    25    17    18   ar
    26    18    19   ar
    27    19    20   ar
    28    15    20   ar
    29    18    22    2
    30     6     7    1
    31     6    11    1
    32     7     9    1
    33     7     8    1
    34     8    13    1
    35     9    10    1
    36     9    12    1
    37    10     5    1
    38    10    11    1
    39    12    14    1
    40     5     4    1
    41     4     1    1
    42     1     2    1
    43     1    24    1
    44     1     3    2
    45    24    25    1
    46    28    25    1
    47    25    26    1
    48    25    27    2
@<TRIPOS>MOLECULE
UD2
 46 48 0 0 0
SMALL
GASTEIGER

@<TRIPOS>ATOM
      1 P          22.0740   70.8617   -0.2711 P.3     1  UNL1        0.2189
      2 O          21.5553   69.5357    0.4799 O.3     1  UNL1       -0.4371
      3 O          23.2019   70.5147   -1.1634 O.2     1  UNL1       -0.5170
      4 O          20.8737   71.4892   -1.1424 O.3     1  UNL1       -0.3112
      5 C          20.8773   71.5070   -2.5710 C.3     1  UNL1        0.1811
      6 C          18.3345   71.0186   -5.0675 C.3     1  UNL1        0.2383
      7 C          18.4334   69.6537   -4.3398 C.3     1  UNL1        0.1895
      8 O          17.1711   68.9843   -4.3374 O.3     1  UNL1       -0.3779
      9 C          18.8365   70.0779   -2.9063 C.3     1  UNL1        0.1713
     10 C          19.4355   71.4860   -3.0846 C.3     1  UNL1        0.1764
     11 O          19.4126   71.7859   -4.4893 O.3     1  UNL1       -0.3308
     12 O          17.6876   70.1262   -2.0587 O.3     1  UNL1       -0.3794
     13 H          17.1820   68.1252   -3.8940 H       1  UNL1        0.2106
     14 H          17.2359   69.2775   -1.9584 H       1  UNL1        0.2105
     15 N          18.5352   70.8506   -6.5085 N.ar    1  UNL1       -0.2551
     16 C          17.4709   70.6970   -7.3162 C.ar    1  UNL1        0.3323
     17 N          17.6258   70.5405   -8.6442 N.ar    1  UNL1       -0.2743
     18 C          18.8599   70.5373   -9.1878 C.ar    1  UNL1        0.2626
     19 C          19.9892   70.6990   -8.3495 C.ar    1  UNL1        0.0795
     20 C          19.8041   70.8582   -7.0222 C.ar    1  UNL1        0.0869
     21 O          16.3522   70.6981   -6.8398 O.2     1  UNL1       -0.2464
     22 O          19.0015   70.3961  -10.3897 O.2     1  UNL1       -0.2670
     23 H          16.8477   70.4298   -9.2121 H       1  UNL1        0.1734
     24 O          22.5645   71.9397    0.8201 O.3     1  UNL1       -0.2703
     25 P          21.8176   72.7905    1.9652 P.3     1  UNL1        0.2208
     26 O          20.6711   73.7013    1.2946 O.3     1  UNL1       -0.4371
     27 O          21.2035   71.8674    2.9445 O.2     1  UNL1       -0.5170
     28 O          22.8849   73.7355    2.7138 O.3     1  UNL1       -0.2865
     29 C          23.2180   73.5909    4.0956 C.3     1  UNL1        0.2611
     30 C          22.3324   74.5154    4.9345 C.3     1  UNL1        0.1582
     31 C          22.6082   75.9694    4.5392 C.3     1  UNL1        0.1625
     32 C          24.0986   76.2646    4.7283 C.3     1  UNL1        0.1686
     33 C          24.9164   75.2725    3.8971 C.3     1  UNL1        0.1760
     34 O          21.8391   76.8434    5.3685 O.3     1  UNL1       -0.3801
     35 O          24.4411   76.1283    6.1087 O.3     1  UNL1       -0.3794
     36 O          24.5899   73.9389    4.2933 O.3     1  UNL1       -0.3263
     37 H          21.9643   77.7821    5.1725 H       1  UNL1        0.2105
     38 H          25.3732   76.3007    6.3022 H       1  UNL1        0.2105
     39 C          20.0560   74.1367    5.7170 C.2     1  UNL1        0.2231
     40 C          18.6071   73.8124    5.4638 C.3     1  UNL1        0.0946
     41 N          20.9232   74.1996    4.6874 N.am    1  UNL1       -0.2994
     42 O          20.4432   74.3414    6.8485 O.2     1  UNL1       -0.2751
     43 H          20.6143   74.0351    3.7827 H       1  UNL1        0.1496
     44 C          26.4080   75.5226    4.1273 C.3     1  UNL1        0.1693
     45 O          26.8947   74.6211    5.1237 O.3     1  UNL1       -0.3794
     46 H          27.8358   74.7232    5.3212 H       1  UNL1        0.2105
@<TRIPOS>BOND
     1    29    30    1
     2    30    41    1
     3    30    31    1
     4    31    34    1
     5    31    32    1
     6    32    35    1
     7    32    33    1
     8    33    36    1
     9    33    44    1
    10    39    40    1
    11    39    42    2
    12    39    41   am
    13    41    43    1
    14    29    28    1
    15    34    37    1
    16    35    38    1
    17    29    36    1
    18    44    45    1
    19    45    46    1
    20    15     6    1
    21    15    16   ar
    22    16    21    2
    23    16    17   ar
    24    17    23    1
    25    17    18   ar
    26    18    19   ar
    27    19    20   ar
    28    15    20   ar
    29    18    22    2
    30     6     7    1
    31     6    11    1
    32     7     9    1
    33     7     8    1
    34     8    13    1
    35     9    10    1
    36     9    12    1
    37    10     5    1
    38    10    11    1
    39    12    14    1
    40     5     4    1
    41     4     1    1
    42     1     2    1
    43     1    24    1
    44     1     3    2
    45    24    25    1
    46    28    25    1
    47    25    26    1
    48    25    27    2
@<TRIPOS>MOLECULE
UD2
 46 48 0 0 0
SMALL
GASTEIGER

@<TRIPOS>ATOM
      1 P          22.1051   70.8839   -2.7386 P.3     1  UNL1        0.2189
      2 O          23.6032   70.7471   -3.3117 O.3     1  UNL1       -0.4371
      3 O          21.3226   69.6846   -3.1105 O.2     1  UNL1       -0.5170
      4 O          22.1545   71.0163   -1.1343 O.3     1  UNL1       -0.3112
      5 C          21.0390   71.4537   -0.3560 C.3     1  UNL1        0.1811
      6 C          21.6899   74.1926    1.8826 C.3     1  UNL1        0.2383
      7 C          23.0749   73.8435    1.2809 C.3     1  UNL1        0.1895
      8 O          23.9016   75.0059    1.1956 O.3     1  UNL1       -0.3779
      9 C          22.6965   73.3301   -0.1300 C.3     1  UNL1        0.1713
     10 C          21.2137   72.9323   -0.0008 C.3     1  UNL1        0.1764
     11 O          20.8282   73.1558    1.3648 O.3     1  UNL1       -0.3308
     12 O          22.8535   74.3692   -1.0977 O.3     1  UNL1       -0.3794
     13 H          24.7790   74.8385    0.8258 H       1  UNL1        0.2106
     14 H          23.7585   74.6993   -1.1783 H       1  UNL1        0.2105
     15 N          21.7358   74.1430    3.3456 N.ar    1  UNL1       -0.2551
     16 C          21.8907   72.9607    3.9677 C.ar    1  UNL1        0.3323
     17 N          21.9361   72.8854    5.3111 N.ar    1  UNL1       -0.2743
     18 C          21.8279   74.0033    6.0575 C.ar    1  UNL1        0.2626
     19 C          21.6655   75.2546    5.4158 C.ar    1  UNL1        0.0795
     20 C          21.6276   75.3011    4.0675 C.ar    1  UNL1        0.0869
     21 O          21.9897   71.9446    3.3073 O.2     1  UNL1       -0.2464
     22 O          21.8693   73.9365    7.2734 O.2     1  UNL1       -0.2670
     23 H          22.0471   72.0247    5.7436 H       1  UNL1        0.1734
     24 O          21.4088   72.1946   -3.3634 O.3     1  UNL1       -0.2703
     25 P          21.3100   72.8072   -4.8493 P.3     1  UNL1        0.2208
     26 O          20.9355   74.3710   -4.7608 O.3     1  UNL1       -0.4371
     27 O          22.6111   72.6502   -5.5355 O.2     1  UNL1       -0.5170
     28 O          20.1692   72.0278   -5.6762 O.3     1  UNL1       -0.2865
     29 C          19.0179   72.6784   -6.2170 C.3     1  UNL1        0.2611
     30 C          17.7553   71.9351   -5.7741 C.3     1  UNL1        0.1582
     31 C          17.7897   70.5096   -6.3337 C.3     1  UNL1        0.1625
     32 C          17.9208   70.5740   -7.8579 C.3     1  UNL1        0.1686
     33 C          19.1774   71.3699   -8.2205 C.3     1  UNL1        0.1760
     34 O          16.5802   69.8314   -5.9866 O.3     1  UNL1       -0.3801
     35 O          16.7710   71.2183   -8.4094 O.3     1  UNL1       -0.3794
     36 O          19.0956   72.6749   -7.6440 O.3     1  UNL1       -0.3263
     37 H          16.5340   68.9208   -6.3090 H       1  UNL1        0.2105
     38 H          16.7868   71.2947   -9.3737 H       1  UNL1        0.2105
     39 C          16.5302   72.0517   -3.6710 C.2     1  UNL1        0.2231
     40 C          16.4772   72.0007   -2.1666 C.3     1  UNL1        0.0946
     41 N          17.7046   71.8856   -4.3108 N.am    1  UNL1       -0.2994
     42 O          15.5152   72.2425   -4.3078 O.2     1  UNL1       -0.2751
     43 H          18.5165   71.7341   -3.8020 H       1  UNL1        0.1496
     44 C          19.2834   71.4899   -9.7420 C.3     1  UNL1        0.1693
     45 O          18.7009   70.3369  -10.3532 O.3     1  UNL1       -0.3794
     46 H          18.7328   70.3448  -11.3196 H       1  UNL1        0.2105
@<TRIPOS>BOND
     1    29    30    1
     2    30    41    1
     3    30    31    1
     4    31    34    1
     5    31    32    1
     6    32    35    1
     7    32    33    1
     8    33    36    1
     9    33    44    1
    10    39    40    1
    11    39    42    2
    12    39    41   am
    13    41    43    1
    14    29    28    1
    15    34    37    1
    16    35    38    1
    17    29    36    1
    18    44    45    1
    19    45    46    1
    20    15     6    1
    21    15    16   ar
    22    16    21    2
    23    16    17   ar
    24    17    23    1
    25    17    18   ar
    26    18    19   ar
    27    19    20   ar
    28    15    20   ar
    29    18    22    2
    30     6     7    1
    31     6    11    1
    32     7     9    1
    33     7     8    1
    34     8    13    1
    35     9    10    1
    36     9    12    1
    37    10     5    1
    38    10    11    1
    39    12    14    1
    40     5     4    1
    41     4     1    1
    42     1     2    1
    43     1    24    1
    44     1     3    2
    45    24    25    1
    46    28    25    1
    47    25    26    1
    48    25    27    2
@<TRIPOS>MOLECULE
UD2
 46 48 0 0 0
SMALL
GASTEIGER

@<TRIPOS>ATOM
      1 P          21.9067   70.7644   -0.4249 P.3     1  UNL1        0.2189
      2 O          21.5009   69.5103    0.4992 O.3     1  UNL1       -0.4371
      3 O          23.0031   70.3714   -1.3372 O.2     1  UNL1       -0.5170
      4 O          20.6299   71.2293   -1.2892 O.3     1  UNL1       -0.3112
      5 C          20.6959   71.4960   -2.6914 C.3     1  UNL1        0.1811
      6 C          18.2060   71.1524   -5.2640 C.3     1  UNL1        0.2383
      7 C          18.1457   69.8154   -4.4823 C.3     1  UNL1        0.1895
      8 O          16.8247   69.2713   -4.5035 O.3     1  UNL1       -0.3779
      9 C          18.5382   70.2575   -3.0512 C.3     1  UNL1        0.1713
     10 C          19.2777   71.5929   -3.2591 C.3     1  UNL1        0.1764
     11 O          19.3332   71.8355   -4.6739 O.3     1  UNL1       -0.3308
     12 O          17.3707   70.4510   -2.2511 O.3     1  UNL1       -0.3794
     13 H          16.7362   68.4342   -4.0280 H       1  UNL1        0.2106
     14 H          16.8350   69.6546   -2.1364 H       1  UNL1        0.2105
     15 N          18.4394   70.9067   -6.6889 N.ar    1  UNL1       -0.2551
     16 C          17.3923   70.7527   -7.5188 C.ar    1  UNL1        0.3323
     17 N          17.5773   70.5257   -8.8328 N.ar    1  UNL1       -0.2743
     18 C          18.8248   70.4507   -9.3395 C.ar    1  UNL1        0.2626
     19 C          19.9361   70.6119   -8.4775 C.ar    1  UNL1        0.0795
     20 C          19.7212   70.8427   -7.1653 C.ar    1  UNL1        0.0869
     21 O          16.2619   70.8180   -7.0757 O.2     1  UNL1       -0.2464
     22 O          18.9936   70.2456  -10.5287 O.2     1  UNL1       -0.2670
     23 H          16.8113   70.4157   -9.4170 H       1  UNL1        0.1734
     24 O          22.3950   71.9829    0.5079 O.3     1  UNL1       -0.2703
     25 P          22.1135   73.5684    0.5140 P.3     1  UNL1        0.2208
     26 O          20.5588   73.8357    0.8381 O.3     1  UNL1       -0.4371
     27 O          22.9506   74.2143    1.5486 O.2     1  UNL1       -0.5170
     28 O          22.4745   74.1830   -0.9298 O.3     1  UNL1       -0.2865
     29 C          23.6461   73.8166   -1.6610 C.3     1  UNL1        0.2611
     30 C          24.6199   74.9971   -1.6910 C.3     1  UNL1        0.1582
     31 C          23.9629   76.1713   -2.4232 C.3     1  UNL1        0.1625
     32 C          23.5552   75.7192   -3.8281 C.3     1  UNL1        0.1686
     33 C          22.6222   74.5106   -3.7156 C.3     1  UNL1        0.1760
     34 O          24.8921   77.2531   -2.5205 O.3     1  UNL1       -0.3801
     35 O          24.7209   75.3558   -4.5700 O.3     1  UNL1       -0.3794
     36 O          23.2825   73.4662   -2.9979 O.3     1  UNL1       -0.3263
     37 H          24.5418   78.0325   -2.9733 H       1  UNL1        0.2105
     38 H          24.5370   75.0578   -5.4718 H       1  UNL1        0.2105
     39 C          26.2213   75.6829    0.0127 C.2     1  UNL1        0.2231
     40 C          26.5587   76.0937    1.4220 C.3     1  UNL1        0.0946
     41 N          24.9472   75.3964   -0.3199 N.am    1  UNL1       -0.2994
     42 O          27.0970   75.6096   -0.8240 O.2     1  UNL1       -0.2751
     43 H          24.2470   75.4539    0.3490 H       1  UNL1        0.1496
     44 C          22.2578   74.0157   -5.1166 C.3     1  UNL1        0.1693
     45 O          22.9894   72.8227   -5.4064 O.3     1  UNL1       -0.3794
     46 H          22.8078   72.4520   -6.2808 H       1  UNL1        0.2105
@<TRIPOS>BOND
     1    29    30    1
     2    30    41    1
     3    30    31    1
     4    31    34    1
     5    31    32    1
     6    32    35    1
     7    32    33    1
     8    33    36    1
     9    33    44    1
    10    39    40    1
    11    39    42    2
    12    39    41   am
    13    41    43    1
    14    29    28    1
    15    34    37    1
    16    35    38    1
    17    29    36    1
    18    44    45    1
    19    45    46    1
    20    15     6    1
    21    15    16   ar
    22    16    21    2
    23    16    17   ar
    24    17    23    1
    25    17    18   ar
    26    18    19   ar
    27    19    20   ar
    28    15    20   ar
    29    18    22    2
    30     6     7    1
    31     6    11    1
    32     7     9    1
    33     7     8    1
    34     8    13    1
    35     9    10    1
    36     9    12    1
    37    10     5    1
    38    10    11    1
    39    12    14    1
    40     5     4    1
    41     4     1    1
    42     1     2    1
    43     1    24    1
    44     1     3    2
    45    24    25    1
    46    28    25    1
    47    25    26    1
    48    25    27    2
@<TRIPOS>MOLECULE
UD2
 46 48 0 0 0
SMALL
GASTEIGER

@<TRIPOS>ATOM
      1 P          20.5711   75.1253   -4.1646 P.3     1  UNL1        0.2189
      2 O          20.0178   75.7435   -5.5441 O.3     1  UNL1       -0.4371
      3 O          20.5318   76.1607   -3.1085 O.2     1  UNL1       -0.5170
      4 O          19.6503   73.8782   -3.7281 O.3     1  UNL1       -0.3112
      5 C          18.4432   74.0282   -2.9785 C.3     1  UNL1        0.1811
      6 C          17.0920   71.7980   -5.4559 C.3     1  UNL1        0.2383
      7 C          17.6308   70.8637   -4.3429 C.3     1  UNL1        0.1895
      8 O          16.8594   69.6634   -4.2668 O.3     1  UNL1       -0.3779
      9 C          17.4370   71.7264   -3.0719 C.3     1  UNL1        0.1713
     10 C          17.3433   73.1684   -3.6062 C.3     1  UNL1        0.1764
     11 O          17.5220   73.1094   -5.0303 O.3     1  UNL1       -0.3308
     12 O          16.2297   71.3618   -2.4008 O.3     1  UNL1       -0.3794
     13 H          17.1580   69.0461   -3.5854 H       1  UNL1        0.2106
     14 H          16.2103   70.4450   -2.0949 H       1  UNL1        0.2105
     15 N          17.6859   71.4547   -6.7499 N.ar    1  UNL1       -0.2551
     16 C          17.0601   70.5823   -7.5599 C.ar    1  UNL1        0.3323
     17 N          17.5830   70.2484   -8.7546 N.ar    1  UNL1       -0.2743
     18 C          18.7499   70.7895   -9.1599 C.ar    1  UNL1        0.2626
     19 C          19.4189   71.7100   -8.3177 C.ar    1  UNL1        0.0795
     20 C          18.8696   72.0298   -7.1272 C.ar    1  UNL1        0.0869
     21 O          16.0072   70.0868   -7.2075 O.2     1  UNL1       -0.2464
     22 O          19.2241   70.4883  -10.2411 O.2     1  UNL1       -0.2670
     23 H          17.1194   69.6168   -9.3258 H       1  UNL1        0.1734
     24 O          22.0880   74.6254   -4.3704 O.3     1  UNL1       -0.2703
     25 P          23.0137   73.5311   -3.6365 P.3     1  UNL1        0.2208
     26 O          22.7967   72.0937   -4.3298 O.3     1  UNL1       -0.4371
     27 O          24.4342   73.9263   -3.7560 O.2     1  UNL1       -0.5170
     28 O          22.6096   73.4433   -2.0804 O.3     1  UNL1       -0.2865
     29 C          23.5222   73.0313   -1.0612 C.3     1  UNL1        0.2611
     30 C          22.8489   71.9917   -0.1619 C.3     1  UNL1        0.1582
     31 C          21.6400   72.6319    0.5273 C.3     1  UNL1        0.1625
     32 C          22.1049   73.8627    1.3104 C.3     1  UNL1        0.1686
     33 C          22.8070   74.8304    0.3541 C.3     1  UNL1        0.1760
     34 O          21.0485   71.6899    1.4252 O.3     1  UNL1       -0.3801
     35 O          23.0141   73.4606    2.3365 O.3     1  UNL1       -0.3794
     36 O          23.9023   74.1636   -0.2765 O.3     1  UNL1       -0.3263
     37 H          20.2751   72.0287    1.8967 H       1  UNL1        0.2105
     38 H          23.3506   74.1917    2.8734 H       1  UNL1        0.2105
     39 C          21.1477   70.8245   -1.4586 C.2     1  UNL1        0.2231
     40 C          20.6905   69.6577   -2.2940 C.3     1  UNL1        0.0946
     41 N          22.4049   70.8562   -0.9743 N.am    1  UNL1       -0.2994
     42 O          20.3839   71.7369   -1.2211 O.2     1  UNL1       -0.2751
     43 H          23.0155   70.1265   -1.1631 H       1  UNL1        0.1496
     44 C          23.3272   76.0357    1.1397 C.3     1  UNL1        0.1693
     45 O          22.3014   76.5162    2.0110 O.3     1  UNL1       -0.3794
     46 H          22.5618   77.2816    2.5415 H       1  UNL1        0.2105
@<TRIPOS>BOND
     1    29    30    1
     2    30    41    1
     3    30    31    1
     4    31    34    1
     5    31    32    1
     6    32    35    1
     7    32    33    1
     8    33    36    1
     9    33    44    1
    10    39    40    1
    11    39    42    2
    12    39    41   am
    13    41    43    1
    14    29    28    1
    15    34    37    1
    16    35    38    1
    17    29    36    1
    18    44    45    1
    19    45    46    1
    20    15     6    1
    21    15    16   ar
    22    16    21    2
    23    16    17   ar
    24    17    23    1
    25    17    18   ar
    26    18    19   ar
    27    19    20   ar
    28    15    20   ar
    29    18    22    2
    30     6     7    1
    31     6    11    1
    32     7     9    1
    33     7     8    1
    34     8    13    1
    35     9    10    1
    36     9    12    1
    37    10     5    1
    38    10    11    1
    39    12    14    1
    40     5     4    1
    41     4     1    1
    42     1     2    1
    43     1    24    1
    44     1     3    2
    45    24    25    1
    46    28    25    1
    47    25    26    1
    48    25    27    2
@<TRIPOS>MOLECULE
UD2
 46 48 0 0 0
SMALL
GASTEIGER

@<TRIPOS>ATOM
      1 P          21.7395   73.3085   -0.7876 P.3     1  UNL1        0.2189
      2 O          21.5788   74.7305   -0.0504 O.3     1  UNL1       -0.4371
      3 O          21.7679   72.2286    0.2232 O.2     1  UNL1       -0.5170
      4 O          20.4962   73.0777   -1.7849 O.3     1  UNL1       -0.3112
      5 C          20.3960   71.9476   -2.6534 C.3     1  UNL1        0.1811
      6 C          18.0489   71.2978   -5.3001 C.3     1  UNL1        0.2383
      7 C          18.0599   69.9951   -4.4605 C.3     1  UNL1        0.1895
      8 O          16.7869   69.3477   -4.5067 O.3     1  UNL1       -0.3779
      9 C          18.3574   70.5278   -3.0374 C.3     1  UNL1        0.1713
     10 C          18.9993   71.9074   -3.2784 C.3     1  UNL1        0.1764
     11 O          19.0944   72.0927   -4.6997 O.3     1  UNL1       -0.3308
     12 O          17.1462   70.6626   -2.2920 O.3     1  UNL1       -0.3794
     13 H          16.7438   68.5274   -3.9969 H       1  UNL1        0.2106
     14 H          16.6695   69.8319   -2.1612 H       1  UNL1        0.2105
     15 N          18.3595   71.0104   -6.7023 N.ar    1  UNL1       -0.2551
     16 C          17.3610   70.7652   -7.5693 C.ar    1  UNL1        0.3323
     17 N          17.6172   70.4979   -8.8635 N.ar    1  UNL1       -0.2743
     18 C          18.8885   70.4740   -9.3128 C.ar    1  UNL1        0.2626
     19 C          19.9493   70.7313   -8.4114 C.ar    1  UNL1        0.0795
     20 C          19.6630   71.0005   -7.1202 C.ar    1  UNL1        0.0869
     21 O          16.2098   70.7836   -7.1782 O.2     1  UNL1       -0.2464
     22 O          19.1218   70.2327  -10.4841 O.2     1  UNL1       -0.2670
     23 H          16.8855   70.3222   -9.4750 H       1  UNL1        0.1734
     24 O          23.1122   73.2923   -1.6296 O.3     1  UNL1       -0.2703
     25 P          23.5935   73.9944   -2.9965 P.3     1  UNL1        0.2208
     26 O          24.0221   72.8622   -4.0587 O.3     1  UNL1       -0.4371
     27 O          22.4850   74.7994   -3.5548 O.2     1  UNL1       -0.5170
     28 O          24.8527   74.9511   -2.6937 O.3     1  UNL1       -0.2865
     29 C          26.0328   74.9629   -3.4990 C.3     1  UNL1        0.2611
     30 C          27.0592   75.9199   -2.8880 C.3     1  UNL1        0.1582
     31 C          26.4832   77.3393   -2.8863 C.3     1  UNL1        0.1625
     32 C          26.1078   77.7281   -4.3188 C.3     1  UNL1        0.1686
     33 C          25.1178   76.7011   -4.8748 C.3     1  UNL1        0.1760
     34 O          27.4631   78.2513   -2.3850 O.3     1  UNL1       -0.3801
     35 O          27.2826   77.7484   -5.1317 O.3     1  UNL1       -0.3794
     36 O          25.7035   75.3989   -4.8195 O.3     1  UNL1       -0.3263
     37 H          27.1651   79.1708   -2.3551 H       1  UNL1        0.2105
     38 H          27.1189   77.9869   -6.0549 H       1  UNL1        0.2105
     39 C          28.6196   75.5486   -1.0537 C.2     1  UNL1        0.2231
     40 C          28.9227   75.1267    0.3601 C.3     1  UNL1        0.0946
     41 N          27.3532   75.5091   -1.5128 N.am    1  UNL1       -0.2994
     42 O          29.5159   75.9244   -1.7801 O.2     1  UNL1       -0.2751
     43 H          26.6365   75.2078   -0.9326 H       1  UNL1        0.1496
     44 C          24.7836   77.0492   -6.3265 C.3     1  UNL1        0.1693
     45 O          25.6233   76.2954   -7.2034 O.3     1  UNL1       -0.3794
     46 H          25.4664   76.4658   -8.1422 H       1  UNL1        0.2105
@<TRIPOS>BOND
     1    29    30    1
     2    30    41    1
     3    30    31    1
     4    31    34    1
     5    31    32    1
     6    32    35    1
     7    32    33    1
     8    33    36    1
     9    33    44    1
    10    39    40    1
    11    39    42    2
    12    39    41   am
    13    41    43    1
    14    29    28    1
    15    34    37    1
    16    35    38    1
    17    29    36    1
    18    44    45    1
    19    45    46    1
    20    15     6    1
    21    15    16   ar
    22    16    21    2
    23    16    17   ar
    24    17    23    1
    25    17    18   ar
    26    18    19   ar
    27    19    20   ar
    28    15    20   ar
    29    18    22    2
    30     6     7    1
    31     6    11    1
    32     7     9    1
    33     7     8    1
    34     8    13    1
    35     9    10    1
    36     9    12    1
    37    10     5    1
    38    10    11    1
    39    12    14    1
    40     5     4    1
    41     4     1    1
    42     1     2    1
    43     1    24    1
    44     1     3    2
    45    24    25    1
    46    28    25    1
    47    25    26    1
    48    25    27    2
@<TRIPOS>MOLECULE
UD2
 46 48 0 0 0
SMALL
GASTEIGER

@<TRIPOS>ATOM
      1 P          20.1572   70.2342   -3.1852 P.3     1  UNL1        0.2189
      2 O          19.7961   68.8051   -3.8321 O.3     1  UNL1       -0.4371
      3 O          21.3602   70.7859   -3.8464 O.2     1  UNL1       -0.5170
      4 O          18.9202   71.2446   -3.3919 O.3     1  UNL1       -0.3112
      5 C          17.6346   70.8166   -3.8453 C.3     1  UNL1        0.1811
      6 C          18.5204   72.3414   -6.9801 C.3     1  UNL1        0.2383
      7 C          18.3726   70.8338   -7.3080 C.3     1  UNL1        0.1895
      8 O          17.9258   70.6456   -8.6521 O.3     1  UNL1       -0.3779
      9 C          17.2882   70.3859   -6.2976 C.3     1  UNL1        0.1713
     10 C          17.3296   71.4644   -5.1982 C.3     1  UNL1        0.1764
     11 O          18.3737   72.3883   -5.5442 O.3     1  UNL1       -0.3308
     12 O          16.0043   70.3580   -6.9234 O.3     1  UNL1       -0.3794
     13 H          17.8187   69.7187   -8.9051 H       1  UNL1        0.2106
     14 H          15.9394   69.7379   -7.6621 H       1  UNL1        0.2105
     15 N          19.8421   72.8291   -7.3803 N.ar    1  UNL1       -0.2551
     16 C          19.9851   73.4878   -8.5441 C.ar    1  UNL1        0.3323
     17 N          21.1880   73.9470   -8.9370 N.ar    1  UNL1       -0.2743
     18 C          22.2747   73.7531   -8.1623 C.ar    1  UNL1        0.2626
     19 C          22.1384   73.0623   -6.9341 C.ar    1  UNL1        0.0795
     20 C          20.9197   72.6166   -6.5631 C.ar    1  UNL1        0.0869
     21 O          19.0140   73.6700   -9.2527 O.2     1  UNL1       -0.2464
     22 O          23.3639   74.1686   -8.5165 O.2     1  UNL1       -0.2670
     23 H          21.2737   74.4188   -9.7797 H       1  UNL1        0.1734
     24 O          20.4445   70.0539   -1.6110 O.3     1  UNL1       -0.2703
     25 P          21.6461   70.4993   -0.6358 P.3     1  UNL1        0.2208
     26 O          21.5813   69.6372    0.7230 O.3     1  UNL1       -0.4371
     27 O          22.9418   70.2617   -1.3087 O.2     1  UNL1       -0.5170
     28 O          21.5014   72.0644   -0.2863 O.3     1  UNL1       -0.2865
     29 C          22.6223   72.9098   -0.0219 C.3     1  UNL1        0.2611
     30 C          22.1349   74.2362    0.5661 C.3     1  UNL1        0.1582
     31 C          21.2493   74.9461   -0.4626 C.3     1  UNL1        0.1625
     32 C          22.0446   75.1421   -1.7562 C.3     1  UNL1        0.1686
     33 C          22.5357   73.7803   -2.2548 C.3     1  UNL1        0.1760
     34 O          20.8493   76.2192    0.0497 O.3     1  UNL1       -0.3801
     35 O          23.1655   75.9914   -1.5038 O.3     1  UNL1       -0.3794
     36 O          23.3272   73.1602   -1.2395 O.3     1  UNL1       -0.3263
     37 H          20.2844   76.7245   -0.5509 H       1  UNL1        0.2105
     38 H          23.7161   76.1587   -2.2815 H       1  UNL1        0.2105
     39 C          21.9504   74.0750    2.9905 C.2     1  UNL1        0.2231
     40 C          21.1552   73.8089    4.2417 C.3     1  UNL1        0.0946
     41 N          21.3607   73.9770    1.7827 N.am    1  UNL1       -0.2994
     42 O          23.1227   74.3777    3.0695 O.2     1  UNL1       -0.2751
     43 H          20.4238   73.7340    1.7191 H       1  UNL1        0.1496
     44 C          23.3817   73.9737   -3.5147 C.3     1  UNL1        0.1693
     45 O          23.8401   72.7030   -3.9812 O.3     1  UNL1       -0.3794
     46 H          24.3843   72.7492   -4.7791 H       1  UNL1        0.2105
@<TRIPOS>BOND
     1    29    30    1
     2    30    41    1
     3    30    31    1
     4    31    34    1
     5    31    32    1
     6    32    35    1
     7    32    33    1
     8    33    36    1
     9    33    44    1
    10    39    40    1
    11    39    42    2
    12    39    41   am
    13    41    43    1
    14    29    28    1
    15    34    37    1
    16    35    38    1
    17    29    36    1
    18    44    45    1
    19    45    46    1
    20    15     6    1
    21    15    16   ar
    22    16    21    2
    23    16    17   ar
    24    17    23    1
    25    17    18   ar
    26    18    19   ar
    27    19    20   ar
    28    15    20   ar
    29    18    22    2
    30     6     7    1
    31     6    11    1
    32     7     9    1
    33     7     8    1
    34     8    13    1
    35     9    10    1
    36     9    12    1
    37    10     5    1
    38    10    11    1
    39    12    14    1
    40     5     4    1
    41     4     1    1
    42     1     2    1
    43     1    24    1
    44     1     3    2
    45    24    25    1
    46    28    25    1
    47    25    26    1
    48    25    27    2
@<TRIPOS>MOLECULE
UD2
 46 48 0 0 0
SMALL
GASTEIGER

@<TRIPOS>ATOM
      1 P          22.1362   73.3955   -1.3448 P.3     1  UNL1        0.2189
      2 O          21.6585   74.6999   -0.5313 O.3     1  UNL1       -0.4371
      3 O          22.2959   72.2607   -0.4090 O.2     1  UNL1       -0.5170
      4 O          21.0325   73.0228   -2.4569 O.3     1  UNL1       -0.3112
      5 C          20.5542   71.6921   -2.6617 C.3     1  UNL1        0.1811
      6 C          18.1333   71.2323   -5.2817 C.3     1  UNL1        0.2383
      7 C          18.0852   69.9125   -4.4707 C.3     1  UNL1        0.1895
      8 O          16.7777   69.3375   -4.5092 O.3     1  UNL1       -0.3779
      9 C          18.4341   70.3959   -3.0417 C.3     1  UNL1        0.1713
     10 C          19.1478   71.7431   -3.2637 C.3     1  UNL1        0.1764
     11 O          19.2307   71.9547   -4.6821 O.3     1  UNL1       -0.3308
     12 O          17.2442   70.5805   -2.2731 O.3     1  UNL1       -0.3794
     13 H          16.6971   68.5096   -4.0166 H       1  UNL1        0.2106
     14 H          16.7241   69.7747   -2.1522 H       1  UNL1        0.2105
     15 N          18.4054   70.9598   -6.6948 N.ar    1  UNL1       -0.2551
     16 C          17.3815   70.7719   -7.5464 C.ar    1  UNL1        0.3323
     17 N          17.6022   70.5196   -8.8502 N.ar    1  UNL1       -0.2743
     18 C          18.8628   70.4530   -9.3247 C.ar    1  UNL1        0.2626
     19 C          19.9500   70.6498   -8.4396 C.ar    1  UNL1        0.0795
     20 C          19.6994   70.9053   -7.1383 C.ar    1  UNL1        0.0869
     21 O          16.2397   70.8293   -7.1325 O.2     1  UNL1       -0.2464
     22 O          19.0638   70.2252  -10.5046 O.2     1  UNL1       -0.2670
     23 H          16.8526   70.3854   -9.4503 H       1  UNL1        0.1734
     24 O          23.5434   73.6984   -2.0667 O.3     1  UNL1       -0.2703
     25 P          23.9751   74.0177   -3.5848 P.3     1  UNL1        0.2208
     26 O          23.5929   72.7673   -4.5252 O.3     1  UNL1       -0.4371
     27 O          23.2627   75.2251   -4.0570 O.2     1  UNL1       -0.5170
     28 O          25.5638   74.2720   -3.6488 O.3     1  UNL1       -0.2865
     29 C          26.1414   75.5774   -3.7080 C.3     1  UNL1        0.2611
     30 C          27.6450   75.4597   -3.9693 C.3     1  UNL1        0.1582
     31 C          28.3003   74.7137   -2.8029 C.3     1  UNL1        0.1625
     32 C          27.9940   75.4563   -1.4994 C.3     1  UNL1        0.1686
     33 C          26.4766   75.5741   -1.3334 C.3     1  UNL1        0.1760
     34 O          29.7147   74.6635   -3.0030 O.3     1  UNL1       -0.3801
     35 O          28.5726   76.7618   -1.5462 O.3     1  UNL1       -0.3794
     36 O          25.9261   76.2500   -2.4657 O.3     1  UNL1       -0.3263
     37 H          30.1948   74.2034   -2.3008 H       1  UNL1        0.2105
     38 H          28.4170   77.2904   -0.7510 H       1  UNL1        0.2105
     39 C          28.8380   75.1070   -6.0645 C.2     1  UNL1        0.2231
     40 C          29.0691   74.3448   -7.3429 C.3     1  UNL1        0.0946
     41 N          27.8690   74.7179   -5.2127 N.am    1  UNL1       -0.2994
     42 O          29.5245   76.0722   -5.8010 O.2     1  UNL1       -0.2751
     43 H          27.3193   73.9469   -5.4234 H       1  UNL1        0.1496
     44 C          26.1628   76.3672   -0.0633 C.3     1  UNL1        0.1693
     45 O          26.4891   75.5797    1.0837 O.3     1  UNL1       -0.3794
     46 H          26.3154   76.0207    1.9266 H       1  UNL1        0.2105
@<TRIPOS>BOND
     1    29    30    1
     2    30    41    1
     3    30    31    1
     4    31    34    1
     5    31    32    1
     6    32    35    1
     7    32    33    1
     8    33    36    1
     9    33    44    1
    10    39    40    1
    11    39    42    2
    12    39    41   am
    13    41    43    1
    14    29    28    1
    15    34    37    1
    16    35    38    1
    17    29    36    1
    18    44    45    1
    19    45    46    1
    20    15     6    1
    21    15    16   ar
    22    16    21    2
    23    16    17   ar
    24    17    23    1
    25    17    18   ar
    26    18    19   ar
    27    19    20   ar
    28    15    20   ar
    29    18    22    2
    30     6     7    1
    31     6    11    1
    32     7     9    1
    33     7     8    1
    34     8    13    1
    35     9    10    1
    36     9    12    1
    37    10     5    1
    38    10    11    1
    39    12    14    1
    40     5     4    1
    41     4     1    1
    42     1     2    1
    43     1    24    1
    44     1     3    2
    45    24    25    1
    46    28    25    1
    47    25    26    1
    48    25    27    2
@<TRIPOS>MOLECULE
UD2
 46 48 0 0 0
SMALL
GASTEIGER

@<TRIPOS>ATOM
      1 P          22.9364   72.3014   -3.5266 P.3     1  UNL1        0.2189
      2 O          24.1746   73.1181   -4.1521 O.3     1  UNL1       -0.4371
      3 O          23.3513   70.9078   -3.2536 O.2     1  UNL1       -0.5170
      4 O          22.4708   73.0018   -2.1531 O.3     1  UNL1       -0.3112
      5 C          21.6498   74.1705   -2.1161 C.3     1  UNL1        0.1811
      6 C          22.9623   75.3457    1.0196 C.3     1  UNL1        0.2383
      7 C          24.1973   74.7959    0.2617 C.3     1  UNL1        0.1895
      8 O          25.3791   75.5126    0.6245 O.3     1  UNL1       -0.3779
      9 C          23.8192   75.0657   -1.2153 C.3     1  UNL1        0.1713
     10 C          22.2857   75.2110   -1.1909 C.3     1  UNL1        0.1764
     11 O          21.8564   74.9894    0.1619 O.3     1  UNL1       -0.3308
     12 O          24.4293   76.2733   -1.6739 O.3     1  UNL1       -0.3794
     13 H          26.1789   75.2050    0.1769 H       1  UNL1        0.2106
     14 H          25.3957   76.2587   -1.6543 H       1  UNL1        0.2105
     15 N          22.8301   74.7000    2.3275 N.ar    1  UNL1       -0.2551
     16 C          22.5899   73.3785    2.3971 C.ar    1  UNL1        0.3323
     17 N          22.4637   72.7589    3.5855 N.ar    1  UNL1       -0.2743
     18 C          22.5790   73.4597    4.7319 C.ar    1  UNL1        0.2626
     19 C          22.8328   74.8512    4.6735 C.ar    1  UNL1        0.0795
     20 C          22.9590   75.4456    3.4684 C.ar    1  UNL1        0.0869
     21 O          22.4838   72.7341    1.3715 O.2     1  UNL1       -0.2464
     22 O          22.4654   72.9000    5.8082 O.2     1  UNL1       -0.2670
     23 H          22.2894   71.8057    3.6177 H       1  UNL1        0.1734
     24 O          21.7105   72.3020   -4.5709 O.3     1  UNL1       -0.2703
     25 P          21.4404   73.0380   -5.9774 P.3     1  UNL1        0.2208
     26 O          21.6173   74.6282   -5.7930 O.3     1  UNL1       -0.4371
     27 O          22.4070   72.5482   -6.9844 O.2     1  UNL1       -0.5170
     28 O          19.9417   72.7181   -6.4714 O.3     1  UNL1       -0.2865
     29 C          18.7811   73.0727   -5.7173 C.3     1  UNL1        0.2611
     30 C          18.0739   71.8021   -5.2396 C.3     1  UNL1        0.1582
     31 C          17.6093   70.9980   -6.4577 C.3     1  UNL1        0.1625
     32 C          16.7011   71.8782   -7.3208 C.3     1  UNL1        0.1686
     33 C          17.4615   73.1461   -7.7185 C.3     1  UNL1        0.1760
     34 O          16.8835   69.8466   -6.0209 O.3     1  UNL1       -0.3801
     35 O          15.5340   72.2338   -6.5774 O.3     1  UNL1       -0.3794
     36 O          17.8920   73.8306   -6.5403 O.3     1  UNL1       -0.3263
     37 H          16.5592   69.2897   -6.7419 H       1  UNL1        0.2105
     38 H          14.9125   72.7934   -7.0638 H       1  UNL1        0.2105
     39 C          18.5726   70.3765   -3.3273 C.2     1  UNL1        0.2231
     40 C          19.5268   69.5458   -2.5100 C.3     1  UNL1        0.0946
     41 N          19.0028   70.9944   -4.4450 N.am    1  UNL1       -0.2994
     42 O          17.4156   70.4897   -2.9797 O.2     1  UNL1       -0.2751
     43 H          19.9279   70.9050   -4.7228 H       1  UNL1        0.1496
     44 C          16.5411   74.0586   -8.5313 C.3     1  UNL1        0.1693
     45 O          15.5007   73.2797   -9.1255 O.3     1  UNL1       -0.3794
     46 H          14.8780   73.7943   -9.6571 H       1  UNL1        0.2105
@<TRIPOS>BOND
     1    29    30    1
     2    30    41    1
     3    30    31    1
     4    31    34    1
     5    31    32    1
     6    32    35    1
     7    32    33    1
     8    33    36    1
     9    33    44    1
    10    39    40    1
    11    39    42    2
    12    39    41   am
    13    41    43    1
    14    29    28    1
    15    34    37    1
    16    35    38    1
    17    29    36    1
    18    44    45    1
    19    45    46    1
    20    15     6    1
    21    15    16   ar
    22    16    21    2
    23    16    17   ar
    24    17    23    1
    25    17    18   ar
    26    18    19   ar
    27    19    20   ar
    28    15    20   ar
    29    18    22    2
    30     6     7    1
    31     6    11    1
    32     7     9    1
    33     7     8    1
    34     8    13    1
    35     9    10    1
    36     9    12    1
    37    10     5    1
    38    10    11    1
    39    12    14    1
    40     5     4    1
    41     4     1    1
    42     1     2    1
    43     1    24    1
    44     1     3    2
    45    24    25    1
    46    28    25    1
    47    25    26    1
    48    25    27    2
@<TRIPOS>MOLECULE
UD2
 46 48 0 0 0
SMALL
GASTEIGER

@<TRIPOS>ATOM
      1 P          22.7609   71.9116   -3.3948 P.3     1  UNL1        0.2189
      2 O          23.9308   72.9564   -3.7573 O.3     1  UNL1       -0.4371
      3 O          23.3405   70.5614   -3.2221 O.2     1  UNL1       -0.5170
      4 O          22.0409   72.3656   -2.0276 O.3     1  UNL1       -0.3112
      5 C          22.5674   73.3817   -1.1723 C.3     1  UNL1        0.1811
      6 C          22.5897   73.4801    2.4231 C.3     1  UNL1        0.2383
      7 C          21.2137   72.8669    2.0585 C.3     1  UNL1        0.1895
      8 O          20.7783   71.9544    3.0682 O.3     1  UNL1       -0.3779
      9 C          21.5294   72.1210    0.7389 C.3     1  UNL1        0.1713
     10 C          22.8128   72.7981    0.2213 C.3     1  UNL1        0.1764
     11 O          23.1417   73.8512    1.1412 O.3     1  UNL1       -0.3308
     12 O          21.7623   70.7346    0.9928 O.3     1  UNL1       -0.3794
     13 H          19.9217   71.5450    2.8858 H       1  UNL1        0.2106
     14 H          21.0049   70.2714    1.3753 H       1  UNL1        0.2105
     15 N          22.4194   74.6604    3.2732 N.ar    1  UNL1       -0.2551
     16 C          23.1053   74.7558    4.4262 C.ar    1  UNL1        0.3323
     17 N          22.9682   75.8291    5.2271 N.ar    1  UNL1       -0.2743
     18 C          22.1362   76.8323    4.8811 C.ar    1  UNL1        0.2626
     19 C          21.4088   76.7456    3.6697 C.ar    1  UNL1        0.0795
     20 C          21.5688   75.6599    2.8840 C.ar    1  UNL1        0.0869
     21 O          23.8593   73.8588    4.7507 O.2     1  UNL1       -0.2464
     22 O          22.0115   77.8045    5.6049 O.2     1  UNL1       -0.2670
     23 H          23.4694   75.8813    6.0555 H       1  UNL1        0.1734
     24 O          21.6784   71.8829   -4.5867 O.3     1  UNL1       -0.2703
     25 P          21.3459   72.8651   -5.8187 P.3     1  UNL1        0.2208
     26 O          21.2998   74.3869   -5.2939 O.3     1  UNL1       -0.4371
     27 O          22.3953   72.7322   -6.8530 O.2     1  UNL1       -0.5170
     28 O          19.9176   72.4707   -6.4489 O.3     1  UNL1       -0.2865
     29 C          18.9703   71.6423   -5.7725 C.3     1  UNL1        0.2611
     30 C          17.8827   71.2019   -6.7553 C.3     1  UNL1        0.1582
     31 C          17.1375   72.4387   -7.2666 C.3     1  UNL1        0.1625
     32 C          16.5642   73.2061   -6.0721 C.3     1  UNL1        0.1686
     33 C          17.7030   73.5694   -5.1154 C.3     1  UNL1        0.1760
     34 O          16.0722   72.0315   -8.1284 O.3     1  UNL1       -0.3801
     35 O          15.6109   72.3879   -5.3917 O.3     1  UNL1       -0.3794
     36 O          18.3741   72.3775   -4.7019 O.3     1  UNL1       -0.3263
     37 H          15.5571   72.7657   -8.4902 H       1  UNL1        0.2105
     38 H          15.2066   72.8115   -4.6215 H       1  UNL1        0.2105
     39 C          18.8219   71.1768   -9.0036 C.2     1  UNL1        0.2231
     40 C          19.4552   70.4557  -10.1645 C.3     1  UNL1        0.0946
     41 N          18.4985   70.4998   -7.8841 N.am    1  UNL1       -0.2994
     42 O          18.6026   72.3679   -9.0758 O.2     1  UNL1       -0.2751
     43 H          18.6728   69.5472   -7.8263 H       1  UNL1        0.1496
     44 C          17.1308   74.2843   -3.8899 C.3     1  UNL1        0.1693
     45 O          17.7435   73.7676   -2.7068 O.3     1  UNL1       -0.3794
     46 H          17.4278   74.1760   -1.8892 H       1  UNL1        0.2105
@<TRIPOS>BOND
     1    29    30    1
     2    30    41    1
     3    30    31    1
     4    31    34    1
     5    31    32    1
     6    32    35    1
     7    32    33    1
     8    33    36    1
     9    33    44    1
    10    39    40    1
    11    39    42    2
    12    39    41   am
    13    41    43    1
    14    29    28    1
    15    34    37    1
    16    35    38    1
    17    29    36    1
    18    44    45    1
    19    45    46    1
    20    15     6    1
    21    15    16   ar
    22    16    21    2
    23    16    17   ar
    24    17    23    1
    25    17    18   ar
    26    18    19   ar
    27    19    20   ar
    28    15    20   ar
    29    18    22    2
    30     6     7    1
    31     6    11    1
    32     7     9    1
    33     7     8    1
    34     8    13    1
    35     9    10    1
    36     9    12    1
    37    10     5    1
    38    10    11    1
    39    12    14    1
    40     5     4    1
    41     4     1    1
    42     1     2    1
    43     1    24    1
    44     1     3    2
    45    24    25    1
    46    28    25    1
    47    25    26    1
    48    25    27    2
@<TRIPOS>MOLECULE
UD2
 46 48 0 0 0
SMALL
GASTEIGER

@<TRIPOS>ATOM
      1 P          22.6822   71.1745   -2.7813 P.3     1  UNL1        0.2189
      2 O          23.1341   72.7131   -2.6404 O.3     1  UNL1       -0.4371
      3 O          23.8198   70.3689   -3.2769 O.2     1  UNL1       -0.5170
      4 O          22.2167   70.6183   -1.3433 O.3     1  UNL1       -0.3112
      5 C          22.6761   71.1735   -0.1095 C.3     1  UNL1        0.1811
      6 C          21.1496   73.1547    2.4753 C.3     1  UNL1        0.2383
      7 C          21.2387   74.1070    1.2558 C.3     1  UNL1        0.1895
      8 O          20.1649   75.0496    1.2651 O.3     1  UNL1       -0.3779
      9 C          21.1019   73.1256    0.0660 C.3     1  UNL1        0.1713
     10 C          21.4887   71.7577    0.6599 C.3     1  UNL1        0.1764
     11 O          21.8546   71.9749    2.0319 O.3     1  UNL1       -0.3308
     12 O          19.7549   73.1022   -0.4091 O.3     1  UNL1       -0.3794
     13 H          20.1774   75.6679    0.5220 H       1  UNL1        0.2106
     14 H          19.4391   73.9537   -0.7404 H       1  UNL1        0.2105
     15 N          21.8124   73.7450    3.6403 N.ar    1  UNL1       -0.2551
     16 C          23.0655   74.2194    3.5246 C.ar    1  UNL1        0.3323
     17 N          23.6990   74.7670    4.5787 N.ar    1  UNL1       -0.2743
     18 C          23.0806   74.8497    5.7742 C.ar    1  UNL1        0.2626
     19 C          21.7611   74.3552    5.9099 C.ar    1  UNL1        0.0795
     20 C          21.1485   73.8152    4.8354 C.ar    1  UNL1        0.0869
     21 O          23.6353   74.1516    2.4527 O.2     1  UNL1       -0.2464
     22 O          23.6527   75.3455    6.7289 O.2     1  UNL1       -0.2670
     23 H          24.6030   75.1031    4.4783 H       1  UNL1        0.1734
     24 O          21.4559   71.0680   -3.8197 O.3     1  UNL1       -0.2703
     25 P          19.9268   70.5782   -3.6973 P.3     1  UNL1        0.2208
     26 O          19.8938   69.0180   -3.2992 O.3     1  UNL1       -0.4371
     27 O          19.2376   71.3677   -2.6532 O.2     1  UNL1       -0.5170
     28 O          19.1815   70.7881   -5.1091 O.3     1  UNL1       -0.2865
     29 C          19.3708   71.9458   -5.9247 C.3     1  UNL1        0.2611
     30 C          18.0453   72.6994   -6.0581 C.3     1  UNL1        0.1582
     31 C          17.0240   71.7984   -6.7593 C.3     1  UNL1        0.1625
     32 C          17.5862   71.3679   -8.1169 C.3     1  UNL1        0.1686
     33 C          18.9297   70.6654   -7.9039 C.3     1  UNL1        0.1760
     34 O          15.8055   72.5199   -6.9540 O.3     1  UNL1       -0.3801
     35 O          17.7739   72.5185   -8.9427 O.3     1  UNL1       -0.3794
     36 O          19.8231   71.5465   -7.2202 O.3     1  UNL1       -0.3263
     37 H          15.1121   72.0086   -7.3933 H       1  UNL1        0.2105
     38 H          18.1294   72.3199   -9.8203 H       1  UNL1        0.2105
     39 C          17.5377   74.3472   -4.3363 C.2     1  UNL1        0.2231
     40 C          17.0282   74.7161   -2.9677 C.3     1  UNL1        0.0946
     41 N          17.5498   73.0574   -4.7267 N.am    1  UNL1       -0.2994
     42 O          17.9377   75.2114   -5.0881 O.2     1  UNL1       -0.2751
     43 H          17.2310   72.3660   -4.1255 H       1  UNL1        0.1496
     44 C          19.5267   70.2850   -9.2602 C.3     1  UNL1        0.1693
     45 O          18.4795   70.1634  -10.2251 O.3     1  UNL1       -0.3794
     46 H          18.7856   69.9235  -11.1104 H       1  UNL1        0.2105
@<TRIPOS>BOND
     1    29    30    1
     2    30    41    1
     3    30    31    1
     4    31    34    1
     5    31    32    1
     6    32    35    1
     7    32    33    1
     8    33    36    1
     9    33    44    1
    10    39    40    1
    11    39    42    2
    12    39    41   am
    13    41    43    1
    14    29    28    1
    15    34    37    1
    16    35    38    1
    17    29    36    1
    18    44    45    1
    19    45    46    1
    20    15     6    1
    21    15    16   ar
    22    16    21    2
    23    16    17   ar
    24    17    23    1
    25    17    18   ar
    26    18    19   ar
    27    19    20   ar
    28    15    20   ar
    29    18    22    2
    30     6     7    1
    31     6    11    1
    32     7     9    1
    33     7     8    1
    34     8    13    1
    35     9    10    1
    36     9    12    1
    37    10     5    1
    38    10    11    1
    39    12    14    1
    40     5     4    1
    41     4     1    1
    42     1     2    1
    43     1    24    1
    44     1     3    2
    45    24    25    1
    46    28    25    1
    47    25    26    1
    48    25    27    2
@<TRIPOS>MOLECULE
UD2
 46 48 0 0 0
SMALL
GASTEIGER

@<TRIPOS>ATOM
      1 P          22.8513   73.3484   -3.8847 P.3     1  UNL1        0.2189
      2 O          23.5001   74.4054   -2.8585 O.3     1  UNL1       -0.4371
      3 O          23.4344   72.0092   -3.6488 O.2     1  UNL1       -0.5170
      4 O          21.2582   73.2879   -3.6567 O.3     1  UNL1       -0.3112
      5 C          20.6177   72.2449   -2.9195 C.3     1  UNL1        0.1811
      6 C          18.1646   71.2695   -5.3624 C.3     1  UNL1        0.2383
      7 C          18.3492   70.0139   -4.4727 C.3     1  UNL1        0.1895
      8 O          17.1393   69.2572   -4.4009 O.3     1  UNL1       -0.3779
      9 C          18.6933   70.6373   -3.0977 C.3     1  UNL1        0.1713
     10 C          19.1911   72.0544   -3.4408 C.3     1  UNL1        0.1764
     11 O          19.1728   72.1796   -4.8717 O.3     1  UNL1       -0.3308
     12 O          17.5282   70.7019   -2.2736 O.3     1  UNL1       -0.3794
     13 H          17.2045   68.4614   -3.8559 H       1  UNL1        0.2106
     14 H          17.1378   69.8401   -2.0749 H       1  UNL1        0.2105
     15 N          18.4041   70.9439   -6.7701 N.ar    1  UNL1       -0.2551
     16 C          17.3622   70.6935   -7.5828 C.ar    1  UNL1        0.3323
     17 N          17.5528   70.3915   -8.8807 N.ar    1  UNL1       -0.2743
     18 C          18.8009   70.3372   -9.3887 C.ar    1  UNL1        0.2626
     19 C          19.9068   70.5995   -8.5448 C.ar    1  UNL1        0.0795
     20 C          19.6861   70.9038   -7.2486 C.ar    1  UNL1        0.0869
     21 O          16.2313   70.7392   -7.1385 O.2     1  UNL1       -0.2464
     22 O          18.9748   70.0643  -10.5633 O.2     1  UNL1       -0.2670
     23 H          16.7905   70.2126   -9.4525 H       1  UNL1        0.1734
     24 O          23.1592   73.8095   -5.3966 O.3     1  UNL1       -0.2703
     25 P          22.3599   74.6917   -6.4809 P.3     1  UNL1        0.2208
     26 O          21.1369   73.8299   -7.0770 O.3     1  UNL1       -0.4371
     27 O          21.8325   75.9121   -5.8322 O.2     1  UNL1       -0.5170
     28 O          23.3570   75.1064   -7.6753 O.3     1  UNL1       -0.2865
     29 C          23.9900   76.3850   -7.7524 C.3     1  UNL1        0.2611
     30 C          23.4762   77.1364   -8.9829 C.3     1  UNL1        0.1582
     31 C          23.8548   76.3532  -10.2437 C.3     1  UNL1        0.1625
     32 C          25.3733   76.1590  -10.2743 C.3     1  UNL1        0.1686
     33 C          25.8141   75.4451   -8.9937 C.3     1  UNL1        0.1760
     34 O          23.4434   77.0842  -11.4011 O.3     1  UNL1       -0.3801
     35 O          26.0161   77.4323  -10.3572 O.3     1  UNL1       -0.3794
     36 O          25.4044   76.2102   -7.8585 O.3     1  UNL1       -0.3263
     37 H          23.6514   76.6453  -12.2374 H       1  UNL1        0.2105
     38 H          26.9821   77.3853  -10.3799 H       1  UNL1        0.2105
     39 C          21.4223   78.4151   -9.2730 C.2     1  UNL1        0.2231
     40 C          19.9240   78.5471   -9.1935 C.3     1  UNL1        0.0946
     41 N          22.0187   77.2641   -8.9050 N.am    1  UNL1       -0.2994
     42 O          22.0932   79.3455   -9.6686 O.2     1  UNL1       -0.2751
     43 H          21.4828   76.5203   -8.5878 H       1  UNL1        0.1496
     44 C          27.3371   75.3005   -8.9890 C.3     1  UNL1        0.1693
     45 O          27.8070   75.2457   -7.6405 O.3     1  UNL1       -0.3794
     46 H          28.7663   75.1542   -7.5611 H       1  UNL1        0.2105
@<TRIPOS>BOND
     1    29    30    1
     2    30    41    1
     3    30    31    1
     4    31    34    1
     5    31    32    1
     6    32    35    1
     7    32    33    1
     8    33    36    1
     9    33    44    1
    10    39    40    1
    11    39    42    2
    12    39    41   am
    13    41    43    1
    14    29    28    1
    15    34    37    1
    16    35    38    1
    17    29    36    1
    18    44    45    1
    19    45    46    1
    20    15     6    1
    21    15    16   ar
    22    16    21    2
    23    16    17   ar
    24    17    23    1
    25    17    18   ar
    26    18    19   ar
    27    19    20   ar
    28    15    20   ar
    29    18    22    2
    30     6     7    1
    31     6    11    1
    32     7     9    1
    33     7     8    1
    34     8    13    1
    35     9    10    1
    36     9    12    1
    37    10     5    1
    38    10    11    1
    39    12    14    1
    40     5     4    1
    41     4     1    1
    42     1     2    1
    43     1    24    1
    44     1     3    2
    45    24    25    1
    46    28    25    1
    47    25    26    1
    48    25    27    2
@<TRIPOS>MOLECULE
UD2
 46 48 0 0 0
SMALL
GASTEIGER

@<TRIPOS>ATOM
      1 P          22.7096   73.0019   -3.5836 P.3     1  UNL1        0.2189
      2 O          23.6536   74.0678   -2.8325 O.3     1  UNL1       -0.4371
      3 O          23.4072   71.7002   -3.6717 O.2     1  UNL1       -0.5170
      4 O          21.3397   72.8218   -2.7562 O.3     1  UNL1       -0.3112
      5 C          21.2164   73.1612   -1.3738 C.3     1  UNL1        0.1811
      6 C          23.0975   72.3974    1.5952 C.3     1  UNL1        0.2383
      7 C          22.3525   71.0813    1.2565 C.3     1  UNL1        0.1895
      8 O          23.1112   69.9441    1.6726 O.3     1  UNL1       -0.3779
      9 C          22.2593   71.1483   -0.2875 C.3     1  UNL1        0.1713
     10 C          22.4386   72.6439   -0.6110 C.3     1  UNL1        0.1764
     11 O          22.5650   73.3398    0.6392 O.3     1  UNL1       -0.3308
     12 O          23.3042   70.3783   -0.8843 O.3     1  UNL1       -0.3794
     13 H          22.6864   69.0967    1.4829 H       1  UNL1        0.2106
     14 H          23.2745   69.4372   -0.6654 H       1  UNL1        0.2105
     15 N          22.7956   72.8237    2.9635 N.ar    1  UNL1       -0.2551
     16 C          21.5982   72.5338    3.5029 C.ar    1  UNL1        0.3323
     17 N          21.2936   72.9133    4.7580 N.ar    1  UNL1       -0.2743
     18 C          22.1925   73.5931    5.4986 C.ar    1  UNL1        0.2626
     19 C          23.4573   73.9040    4.9438 C.ar    1  UNL1        0.0795
     20 C          23.7373   73.5075    3.6844 C.ar    1  UNL1        0.0869
     21 O          20.7780   71.9212    2.8468 O.2     1  UNL1       -0.2464
     22 O          21.9182   73.9368    6.6349 O.2     1  UNL1       -0.2670
     23 H          20.4252   72.6971    5.1312 H       1  UNL1        0.1734
     24 O          22.3742   73.5329   -5.0665 O.3     1  UNL1       -0.2703
     25 P          21.3024   73.1075   -6.1904 P.3     1  UNL1        0.2208
     26 O          20.7615   74.4254   -6.9416 O.3     1  UNL1       -0.4371
     27 O          21.9478   72.2099   -7.1734 O.2     1  UNL1       -0.5170
     28 O          20.0690   72.3423   -5.4933 O.3     1  UNL1       -0.2865
     29 C          19.3654   71.2679   -6.1193 C.3     1  UNL1        0.2611
     30 C          17.8744   71.6062   -6.1908 C.3     1  UNL1        0.1582
     31 C          17.3249   71.7559   -4.7688 C.3     1  UNL1        0.1625
     32 C          17.5903   70.4636   -3.9917 C.3     1  UNL1        0.1686
     33 C          19.0927   70.1694   -4.0049 C.3     1  UNL1        0.1760
     34 O          15.9174   71.9994   -4.8242 O.3     1  UNL1       -0.3801
     35 O          16.8861   69.3833   -4.6067 O.3     1  UNL1       -0.3794
     36 O          19.5456   70.0727   -5.3568 O.3     1  UNL1       -0.3263
     37 H          15.5026   72.1054   -3.9572 H       1  UNL1        0.2105
     38 H          17.0095   68.5309   -4.1659 H       1  UNL1        0.2105
     39 C          16.6732   72.9946   -7.7930 C.2     1  UNL1        0.2231
     40 C          16.4851   74.2866   -8.5439 C.3     1  UNL1        0.0946
     41 N          17.6922   72.8632   -6.9210 N.am    1  UNL1       -0.2994
     42 O          15.9070   72.0711   -7.9729 O.2     1  UNL1       -0.2751
     43 H          18.3056   73.6009   -6.7776 H       1  UNL1        0.1496
     44 C          19.3598   68.8481   -3.2815 C.3     1  UNL1        0.1693
     45 O          18.2592   68.5438   -2.4222 O.3     1  UNL1       -0.3794
     46 H          18.3604   67.7174   -1.9303 H       1  UNL1        0.2105
@<TRIPOS>BOND
     1    29    30    1
     2    30    41    1
     3    30    31    1
     4    31    34    1
     5    31    32    1
     6    32    35    1
     7    32    33    1
     8    33    36    1
     9    33    44    1
    10    39    40    1
    11    39    42    2
    12    39    41   am
    13    41    43    1
    14    29    28    1
    15    34    37    1
    16    35    38    1
    17    29    36    1
    18    44    45    1
    19    45    46    1
    20    15     6    1
    21    15    16   ar
    22    16    21    2
    23    16    17   ar
    24    17    23    1
    25    17    18   ar
    26    18    19   ar
    27    19    20   ar
    28    15    20   ar
    29    18    22    2
    30     6     7    1
    31     6    11    1
    32     7     9    1
    33     7     8    1
    34     8    13    1
    35     9    10    1
    36     9    12    1
    37    10     5    1
    38    10    11    1
    39    12    14    1
    40     5     4    1
    41     4     1    1
    42     1     2    1
    43     1    24    1
    44     1     3    2
    45    24    25    1
    46    28    25    1
    47    25    26    1
    48    25    27    2
