@<TRIPOS>MOLECULE
UDP-glaA
 43 45 0 0 0
SMALL
GASTEIGER

@<TRIPOS>ATOM
      1 P          22.4524   71.6148   -3.0425 P.3     1  UNL1        0.2189
      2 O          22.0957   73.1807   -2.8471 O.3     1  UNL1       -0.4371
      3 O          23.8902   71.3284   -3.3631 O.2     1  UNL1       -0.5170
      4 O          21.3736   71.1026   -4.1331 O.3     1  UNL1       -0.3112
      5 C          20.4920   70.0528   -3.7725 C.3     1  UNL1        0.1811
      6 O          18.7425   71.3531   -4.7838 O.3     1  UNL1       -0.3308
      7 O          16.9132   70.1334   -2.7448 O.3     1  UNL1       -0.3794
      8 O          16.3736   68.6688   -4.9808 O.3     1  UNL1       -0.3779
      9 C          18.0229   69.5494   -3.4268 C.3     1  UNL1        0.1713
     10 C          17.6565   69.2487   -4.8648 C.3     1  UNL1        0.1895
     11 C          19.0924   70.6218   -3.5880 C.3     1  UNL1        0.1764
     12 C          17.7358   70.6241   -5.5051 C.3     1  UNL1        0.2383
     13 H          17.2062   70.3442   -1.8419 H       1  UNL1        0.2105
     14 H          16.3738   67.8501   -4.4556 H       1  UNL1        0.2106
     15 O          15.9193   70.1919   -7.6239 O.2     1  UNL1       -0.2464
     16 O          19.2686   70.4083  -10.7821 O.2     1  UNL1       -0.2670
     17 N          18.1055   70.5634   -6.8904 N.ar    1  UNL1       -0.2551
     18 N          17.5884   70.2994   -9.1951 N.ar    1  UNL1       -0.2743
     19 C          17.1163   70.3408   -7.8766 C.ar    1  UNL1        0.3323
     20 C          19.4363   70.7234   -7.2603 C.ar    1  UNL1        0.0869
     21 C          19.8705   70.6818   -8.5218 C.ar    1  UNL1        0.0795
     22 C          18.9016   70.4526   -9.6119 C.ar    1  UNL1        0.2626
     23 H          16.8949   70.1399   -9.9208 H       1  UNL1        0.1734
     24 O          21.9232   70.9483   -1.6674 O.3     1  UNL1       -0.2703
     25 P          21.1987   71.6056   -0.3808 P.3     1  UNL1        0.2208
     26 O          21.1728   70.3936    0.6900 O.3     1  UNL1       -0.4371
     27 O          19.8525   72.2050   -0.6712 O.2     1  UNL1       -0.5170
     28 O          22.2797   72.6485    0.2089 O.3     1  UNL1       -0.2858
     29 O          23.3088   71.9049    2.2057 O.3     1  UNL1       -0.3226
     30 O          24.6723   75.8220    1.9296 O.3     1  UNL1       -0.3794
     31 O          21.9062   75.1666    1.2776 O.3     1  UNL1       -0.3775
     32 O          25.2050   73.6200    3.5100 O.3     1  UNL1       -0.3792
     33 C          24.2434   74.5356    1.4920 C.3     1  UNL1        0.1718
     34 C          22.7998   74.2743    1.9350 C.3     1  UNL1        0.1968
     35 C          25.1738   73.4747    2.0863 C.3     1  UNL1        0.1723
     36 C          22.3878   72.8309    1.6200 C.3     1  UNL1        0.2706
     37 C          24.6478   72.0820    1.7460 C.3     1  UNL1        0.1830
     38 H          25.5895   75.9430    1.6300 H       1  UNL1        0.2105
     39 H          21.0068   74.9578    1.5814 H       1  UNL1        0.2106
     40 H          24.3648   73.2917    3.8725 H       1  UNL1        0.2106
     41 O          26.7246   71.4335    2.6234 O.co2   1  UNL1       -0.5466
     42 O          25.0295   69.9134    2.7365 O.co2   1  UNL1       -0.5466
     43 C          25.4532   71.0142    2.4153 C.2     1  UNL1        0.0799
@<TRIPOS>UNITY_ATOM_ATTR
41 1
charge -1
@<TRIPOS>BOND
     1     1     4    1
     2     1    24    1
     3     1     2    1
     4     1     3    2
     5    25    28    1
     6    25    24    1
     7    25    26    1
     8    25    27    2
     9     6    11    1
    10     6    12    1
    11    29    36    1
    12    29    37    1
    13     7     9    1
    14     7    13    1
    15     8    10    1
    16     8    14    1
    17     4     5    1
    18    28    36    1
    19    30    33    1
    20    30    38    1
    21    31    34    1
    22    31    39    1
    23    32    35    1
    24    32    40    1
    25    41    43   ar
    26    15    19    2
    27    42    43   ar
    28    16    22    2
    29    17    12    1
    30    17    19   ar
    31    17    20   ar
    32    18    19   ar
    33    18    22   ar
    34    18    23    1
    35     9    10    1
    36     9    11    1
    37    10    12    1
    38    11     5    1
    39    33    34    1
    40    33    35    1
    41    34    36    1
    42    35    37    1
    43    37    43    1
    44    20    21   ar
    45    21    22   ar
@<TRIPOS>MOLECULE
UDP-glaA
 43 45 0 0 0
SMALL
GASTEIGER

@<TRIPOS>ATOM
      1 P          22.8624   71.4969   -2.6702 P.3     1  UNL1        0.2189
      2 O          22.9013   73.0620   -2.2624 O.3     1  UNL1       -0.4371
      3 O          24.1645   70.9395   -3.1661 O.2     1  UNL1       -0.5170
      4 O          21.6167   71.3924   -3.6964 O.3     1  UNL1       -0.3112
      5 C          20.7525   70.2730   -3.6010 C.3     1  UNL1        0.1811
      6 O          18.8839   71.4590   -4.5369 O.3     1  UNL1       -0.3308
      7 O          17.2283   70.1578   -2.4021 O.3     1  UNL1       -0.3794
      8 O          16.6686   68.6404   -4.5976 O.3     1  UNL1       -0.3779
      9 C          18.3363   69.6315   -3.1323 C.3     1  UNL1        0.1713
     10 C          17.9197   69.2946   -4.5484 C.3     1  UNL1        0.1895
     11 C          19.3326   70.7621   -3.3536 C.3     1  UNL1        0.1764
     12 C          17.8880   70.6653   -5.2028 C.3     1  UNL1        0.2383
     13 H          17.5514   70.3949   -1.5161 H       1  UNL1        0.2105
     14 H          16.7416   67.8288   -4.0664 H       1  UNL1        0.2106
     15 O          15.9869   70.1779   -7.2334 O.2     1  UNL1       -0.2464
     16 O          19.1772   70.4776  -10.5456 O.2     1  UNL1       -0.2670
     17 N          18.1940   70.6111   -6.6038 N.ar    1  UNL1       -0.2551
     18 N          17.5769   70.3269   -8.8814 N.ar    1  UNL1       -0.2743
     19 C          17.1661   70.3589   -7.5422 C.ar    1  UNL1        0.3323
     20 C          19.5011   70.8065   -7.0359 C.ar    1  UNL1        0.0869
     21 C          19.8767   70.7734   -8.3164 C.ar    1  UNL1        0.0795
     22 C          18.8644   70.5150   -9.3595 C.ar    1  UNL1        0.2626
     23 H          16.8548   70.1466   -9.5736 H       1  UNL1        0.1734
     24 O          22.2918   70.7882   -1.3333 O.3     1  UNL1       -0.2703
     25 P          21.6114   71.4160   -0.0084 P.3     1  UNL1        0.2208
     26 O          21.3601   70.1217    0.9286 O.3     1  UNL1       -0.4371
     27 O          20.3815   72.2353   -0.2768 O.2     1  UNL1       -0.5170
     28 O          22.8037   72.2227    0.7206 O.3     1  UNL1       -0.2858
     29 O          22.0931   73.6074    2.5031 O.3     1  UNL1       -0.3226
     30 O          26.0574   74.7644    2.0283 O.3     1  UNL1       -0.3794
     31 O          24.3749   74.2516   -0.2980 O.3     1  UNL1       -0.3775
     32 O          24.0316   75.2460    3.8433 O.3     1  UNL1       -0.3792
     33 C          24.9225   73.9030    2.0440 C.3     1  UNL1        0.1718
     34 C          23.8768   74.3783    1.0296 C.3     1  UNL1        0.1968
     35 C          24.3224   73.9000    3.4526 C.3     1  UNL1        0.1723
     36 C          22.5843   73.5627    1.1593 C.3     1  UNL1        0.2706
     37 C          23.0241   73.0960    3.4557 C.3     1  UNL1        0.1830
     38 H          26.6902   74.4279    2.6855 H       1  UNL1        0.2105
     39 H          23.6771   74.5544   -0.9033 H       1  UNL1        0.2106
     40 H          23.2466   75.5466    3.3548 H       1  UNL1        0.2106
     41 O          21.3283   74.0793    4.7446 O.co2   1  UNL1       -0.5466
     42 O          22.6320   72.5124    5.7655 O.co2   1  UNL1       -0.5466
     43 C          22.3354   73.1737    4.7811 C.2     1  UNL1        0.0799
@<TRIPOS>UNITY_ATOM_ATTR
41 1
charge -1
@<TRIPOS>BOND
     1     1     4    1
     2     1    24    1
     3     1     2    1
     4     1     3    2
     5    25    28    1
     6    25    24    1
     7    25    26    1
     8    25    27    2
     9     6    11    1
    10     6    12    1
    11    29    36    1
    12    29    37    1
    13     7     9    1
    14     7    13    1
    15     8    10    1
    16     8    14    1
    17     4     5    1
    18    28    36    1
    19    30    33    1
    20    30    38    1
    21    31    34    1
    22    31    39    1
    23    32    35    1
    24    32    40    1
    25    41    43   ar
    26    15    19    2
    27    42    43   ar
    28    16    22    2
    29    17    12    1
    30    17    19   ar
    31    17    20   ar
    32    18    19   ar
    33    18    22   ar
    34    18    23    1
    35     9    10    1
    36     9    11    1
    37    10    12    1
    38    11     5    1
    39    33    34    1
    40    33    35    1
    41    34    36    1
    42    35    37    1
    43    37    43    1
    44    20    21   ar
    45    21    22   ar
@<TRIPOS>MOLECULE
UDP-glaA
 43 45 0 0 0
SMALL
GASTEIGER

@<TRIPOS>ATOM
      1 P          20.9509   71.2912   -2.3833 P.3     1  UNL1        0.2189
      2 O          20.9442   70.1378   -3.5178 O.3     1  UNL1       -0.4371
      3 O          21.2839   70.8158   -0.9994 O.2     1  UNL1       -0.5170
      4 O          19.5131   72.0121   -2.5519 O.3     1  UNL1       -0.3112
      5 C          19.0521   72.3064   -3.8597 C.3     1  UNL1        0.1811
      6 O          17.1758   72.0635   -5.3412 O.3     1  UNL1       -0.3308
      7 O          15.9078   70.4348   -3.1662 O.3     1  UNL1       -0.3794
      8 O          16.8195   68.5249   -4.8858 O.3     1  UNL1       -0.3779
      9 C          17.2788   70.5084   -3.5570 C.3     1  UNL1        0.1713
     10 C          17.4944   69.7656   -4.8586 C.3     1  UNL1        0.1895
     11 C          17.5763   71.9473   -3.9580 C.3     1  UNL1        0.1764
     12 C          16.9478   70.7502   -5.8783 C.3     1  UNL1        0.2383
     13 H          15.8104   70.9559   -2.3510 H       1  UNL1        0.2105
     14 H          17.1486   67.9964   -4.1384 H       1  UNL1        0.2106
     15 O          15.6107   70.6678   -8.3645 O.2     1  UNL1       -0.2464
     16 O          19.5747   70.3419  -10.6924 O.2     1  UNL1       -0.2670
     17 N          17.6054   70.6447   -7.1495 N.ar    1  UNL1       -0.2551
     18 N          17.5855   70.5051   -9.5220 N.ar    1  UNL1       -0.2743
     19 C          16.8415   70.6102   -8.3394 C.ar    1  UNL1        0.3323
     20 C          18.9929   70.5764   -7.2085 C.ar    1  UNL1        0.0869
     21 C          19.6876   70.4768   -8.3440 C.ar    1  UNL1        0.0795
     22 C          18.9656   70.4337   -9.6310 C.ar    1  UNL1        0.2626
     23 H          17.0571   70.4779  -10.3899 H       1  UNL1        0.1734
     24 O          21.9785   72.3853   -2.9851 O.3     1  UNL1       -0.2703
     25 P          23.4875   72.2285   -3.5426 P.3     1  UNL1        0.2208
     26 O          23.3093   72.3792   -5.1431 O.3     1  UNL1       -0.4371
     27 O          24.1752   70.9647   -3.1116 O.2     1  UNL1       -0.5170
     28 O          24.2352   73.5835   -3.0856 O.3     1  UNL1       -0.2858
     29 O          23.4683   75.2902   -1.6370 O.3     1  UNL1       -0.3226
     30 O          25.9190   77.4004   -4.2485 O.3     1  UNL1       -0.3794
     31 O          24.1512   75.3047   -5.2427 O.3     1  UNL1       -0.3775
     32 O          24.5712   77.9275   -1.8958 O.3     1  UNL1       -0.3792
     33 C          25.4566   76.3101   -3.4562 C.3     1  UNL1        0.1718
     34 C          24.0732   75.8532   -3.9313 C.3     1  UNL1        0.1968
     35 C          25.3874   76.7556   -1.9930 C.3     1  UNL1        0.1723
     36 C          23.4936   74.7981   -2.9809 C.3     1  UNL1        0.2706
     37 C          24.7601   75.6485   -1.1486 C.3     1  UNL1        0.1830
     38 H          26.7942   77.6575   -3.9116 H       1  UNL1        0.2105
     39 H          23.2564   75.0217   -5.4960 H       1  UNL1        0.2106
     40 H          23.6415   77.6667   -2.0094 H       1  UNL1        0.2106
     41 O          25.5936   76.8483    0.6870 O.co2   1  UNL1       -0.5466
     42 O          23.5814   75.8104    0.9524 O.co2   1  UNL1       -0.5466
     43 C          24.5534   76.0893    0.2656 C.2     1  UNL1        0.0799
@<TRIPOS>UNITY_ATOM_ATTR
41 1
charge -1
@<TRIPOS>BOND
     1     1     4    1
     2     1    24    1
     3     1     2    1
     4     1     3    2
     5    25    28    1
     6    25    24    1
     7    25    26    1
     8    25    27    2
     9     6    11    1
    10     6    12    1
    11    29    36    1
    12    29    37    1
    13     7     9    1
    14     7    13    1
    15     8    10    1
    16     8    14    1
    17     4     5    1
    18    28    36    1
    19    30    33    1
    20    30    38    1
    21    31    34    1
    22    31    39    1
    23    32    35    1
    24    32    40    1
    25    41    43   ar
    26    15    19    2
    27    42    43   ar
    28    16    22    2
    29    17    12    1
    30    17    19   ar
    31    17    20   ar
    32    18    19   ar
    33    18    22   ar
    34    18    23    1
    35     9    10    1
    36     9    11    1
    37    10    12    1
    38    11     5    1
    39    33    34    1
    40    33    35    1
    41    34    36    1
    42    35    37    1
    43    37    43    1
    44    20    21   ar
    45    21    22   ar
@<TRIPOS>MOLECULE
UDP-glaA
 43 45 0 0 0
SMALL
GASTEIGER

@<TRIPOS>ATOM
      1 P          22.9452   71.5557   -2.1540 P.3     1  UNL1        0.2189
      2 O          22.3593   73.0235   -1.8080 O.3     1  UNL1       -0.4371
      3 O          23.9132   71.5146   -3.3001 O.2     1  UNL1       -0.5170
      4 O          21.6240   70.6371   -2.3166 O.3     1  UNL1       -0.3112
      5 C          20.9224   70.6714   -3.5477 C.3     1  UNL1        0.1811
      6 O          18.9198   71.6216   -4.4756 O.3     1  UNL1       -0.3308
      7 O          17.4588   70.2494   -2.2453 O.3     1  UNL1       -0.3794
      8 O          17.0043   68.5927   -4.3629 O.3     1  UNL1       -0.3779
      9 C          18.5968   69.8082   -2.9856 C.3     1  UNL1        0.1713
     10 C          18.1825   69.3719   -4.3750 C.3     1  UNL1        0.1895
     11 C          19.4662   71.0238   -3.2792 C.3     1  UNL1        0.1764
     12 C          17.9946   70.7038   -5.0813 C.3     1  UNL1        0.2383
     13 H          17.7774   70.5548   -1.3788 H       1  UNL1        0.2105
     14 H          17.1731   67.8156   -3.8028 H       1  UNL1        0.2106
     15 O          16.1191   69.8925   -7.0307 O.2     1  UNL1       -0.2464
     16 O          19.1650   70.4274  -10.4476 O.2     1  UNL1       -0.2670
     17 N          18.2703   70.6224   -6.4873 N.ar    1  UNL1       -0.2551
     18 N          17.6372   70.1589   -8.7308 N.ar    1  UNL1       -0.2743
     19 C          17.2588   70.2024   -7.3825 C.ar    1  UNL1        0.3323
     20 C          19.5320   70.9566   -6.9667 C.ar    1  UNL1        0.0869
     21 C          19.8771   70.9104   -8.2554 C.ar    1  UNL1        0.0795
     22 C          18.8793   70.4813   -9.2553 C.ar    1  UNL1        0.2626
     23 H          16.9262   69.8592   -9.3924 H       1  UNL1        0.1734
     24 O          23.5558   71.0664   -0.7388 O.3     1  UNL1       -0.2703
     25 P          22.8723   70.9267    0.7193 P.3     1  UNL1        0.2208
     26 O          24.0295   70.2259    1.6059 O.3     1  UNL1       -0.4371
     27 O          21.5622   70.1923    0.7177 O.2     1  UNL1       -0.5170
     28 O          22.7886   72.4382    1.2782 O.3     1  UNL1       -0.2858
     29 O          23.9483   73.6671    2.9348 O.3     1  UNL1       -0.3226
     30 O          20.0338   74.9581    3.4731 O.3     1  UNL1       -0.3794
     31 O          20.6078   72.1476    2.9462 O.3     1  UNL1       -0.3775
     32 O          22.5278   75.6662    4.4263 O.3     1  UNL1       -0.3792
     33 C          21.1940   74.5006    2.7839 C.3     1  UNL1        0.1718
     34 C          21.6001   73.1106    3.2853 C.3     1  UNL1        0.1968
     35 C          22.3338   75.4957    3.0184 C.3     1  UNL1        0.1723
     36 C          22.9411   72.6836    2.6755 C.3     1  UNL1        0.2706
     37 C          23.6234   74.9523    2.4070 C.3     1  UNL1        0.1830
     38 H          19.8151   75.8398    3.1263 H       1  UNL1        0.2105
     39 H          20.9122   71.2847    3.2744 H       1  UNL1        0.2106
     40 H          22.9600   74.8693    4.7773 H       1  UNL1        0.2106
     41 O          24.4262   77.1350    2.7147 O.co2   1  UNL1       -0.5466
     42 O          25.9231   75.4337    2.9630 O.co2   1  UNL1       -0.5466
     43 C          24.7918   75.8305    2.7240 C.2     1  UNL1        0.0799
@<TRIPOS>UNITY_ATOM_ATTR
41 1
charge -1
@<TRIPOS>BOND
     1     1     4    1
     2     1    24    1
     3     1     2    1
     4     1     3    2
     5    25    28    1
     6    25    24    1
     7    25    26    1
     8    25    27    2
     9     6    11    1
    10     6    12    1
    11    29    36    1
    12    29    37    1
    13     7     9    1
    14     7    13    1
    15     8    10    1
    16     8    14    1
    17     4     5    1
    18    28    36    1
    19    30    33    1
    20    30    38    1
    21    31    34    1
    22    31    39    1
    23    32    35    1
    24    32    40    1
    25    41    43   ar
    26    15    19    2
    27    42    43   ar
    28    16    22    2
    29    17    12    1
    30    17    19   ar
    31    17    20   ar
    32    18    19   ar
    33    18    22   ar
    34    18    23    1
    35     9    10    1
    36     9    11    1
    37    10    12    1
    38    11     5    1
    39    33    34    1
    40    33    35    1
    41    34    36    1
    42    35    37    1
    43    37    43    1
    44    20    21   ar
    45    21    22   ar
@<TRIPOS>MOLECULE
UDP-glaA
 43 45 0 0 0
SMALL
GASTEIGER

@<TRIPOS>ATOM
      1 P          21.0742   71.6162   -1.9466 P.3     1  UNL1        0.2189
      2 O          20.7675   72.9619   -2.7906 O.3     1  UNL1       -0.4371
      3 O          22.3596   70.9269   -2.2995 O.2     1  UNL1       -0.5170
      4 O          19.7314   70.7319   -2.1216 O.3     1  UNL1       -0.3112
      5 C          19.2880   70.4257   -3.4326 C.3     1  UNL1        0.1811
      6 O          17.5910   71.4336   -4.8033 O.3     1  UNL1       -0.3308
      7 O          15.6107   69.9105   -3.1451 O.3     1  UNL1       -0.3794
      8 O          15.7769   68.4010   -5.4100 O.3     1  UNL1       -0.3779
      9 C          16.9147   69.5226   -3.5774 C.3     1  UNL1        0.1713
     10 C          16.8990   69.1812   -5.0525 C.3     1  UNL1        0.1895
     11 C          17.8066   70.7567   -3.5454 C.3     1  UNL1        0.1764
     12 C          16.8819   70.5577   -5.6950 C.3     1  UNL1        0.2383
     13 H          15.6778   70.1567   -2.2068 H       1  UNL1        0.2105
     14 H          15.8039   67.5879   -4.8769 H       1  UNL1        0.2106
     15 O          15.5195   70.5660   -8.1687 O.2     1  UNL1       -0.2464
     16 O          19.4652   70.6132  -10.5495 O.2     1  UNL1       -0.2670
     17 N          17.5279   70.5727   -6.9763 N.ar    1  UNL1       -0.2551
     18 N          17.4852   70.5890   -9.3526 N.ar    1  UNL1       -0.2743
     19 C          16.7518   70.5747   -8.1589 C.ar    1  UNL1        0.3323
     20 C          18.9162   70.5849   -7.0525 C.ar    1  UNL1        0.0869
     21 C          19.6007   70.5989   -8.1984 C.ar    1  UNL1        0.0795
     22 C          18.8657   70.6011   -9.4788 C.ar    1  UNL1        0.2626
     23 H          16.9480   70.5901  -10.2155 H       1  UNL1        0.1734
     24 O          20.9794   72.1207   -0.4131 O.3     1  UNL1       -0.2703
     25 P          21.5691   71.4845    0.9507 P.3     1  UNL1        0.2208
     26 O          22.9738   72.2621    1.1459 O.3     1  UNL1       -0.4371
     27 O          21.6868   69.9873    0.9314 O.2     1  UNL1       -0.5170
     28 O          20.6163   72.0633    2.1174 O.3     1  UNL1       -0.2858
     29 O          21.8096   73.7783    3.2283 O.3     1  UNL1       -0.3226
     30 O          21.9649   75.0336   -0.7314 O.3     1  UNL1       -0.3794
     31 O          19.5157   73.8921    0.3660 O.3     1  UNL1       -0.3775
     32 O          23.1134   75.7989    1.6613 O.3     1  UNL1       -0.3792
     33 C          21.9342   74.1316    0.3712 C.3     1  UNL1        0.1718
     34 C          20.6290   74.2931    1.1577 C.3     1  UNL1        0.1968
     35 C          23.1325   74.4194    1.2799 C.3     1  UNL1        0.1723
     36 C          20.6600   73.4526    2.4402 C.3     1  UNL1        0.2706
     37 C          23.0397   73.5602    2.5391 C.3     1  UNL1        0.1830
     38 H          22.8074   74.8983   -1.1977 H       1  UNL1        0.2105
     39 H          18.7159   74.0026    0.9072 H       1  UNL1        0.2106
     40 H          22.4050   75.9292    2.3142 H       1  UNL1        0.2106
     41 O          23.6280   73.9480    4.7768 O.co2   1  UNL1       -0.5466
     42 O          25.2892   74.1085    3.2238 O.co2   1  UNL1       -0.5466
     43 C          24.1202   73.9016    3.5153 C.2     1  UNL1        0.0799
@<TRIPOS>UNITY_ATOM_ATTR
41 1
charge -1
@<TRIPOS>BOND
     1     1     4    1
     2     1    24    1
     3     1     2    1
     4     1     3    2
     5    25    28    1
     6    25    24    1
     7    25    26    1
     8    25    27    2
     9     6    11    1
    10     6    12    1
    11    29    36    1
    12    29    37    1
    13     7     9    1
    14     7    13    1
    15     8    10    1
    16     8    14    1
    17     4     5    1
    18    28    36    1
    19    30    33    1
    20    30    38    1
    21    31    34    1
    22    31    39    1
    23    32    35    1
    24    32    40    1
    25    41    43   ar
    26    15    19    2
    27    42    43   ar
    28    16    22    2
    29    17    12    1
    30    17    19   ar
    31    17    20   ar
    32    18    19   ar
    33    18    22   ar
    34    18    23    1
    35     9    10    1
    36     9    11    1
    37    10    12    1
    38    11     5    1
    39    33    34    1
    40    33    35    1
    41    34    36    1
    42    35    37    1
    43    37    43    1
    44    20    21   ar
    45    21    22   ar
@<TRIPOS>MOLECULE
UDP-glaA
 43 45 0 0 0
SMALL
GASTEIGER

@<TRIPOS>ATOM
      1 P          22.9147   71.4776   -3.0274 P.3     1  UNL1        0.2189
      2 O          24.3863   70.8146   -3.1369 O.3     1  UNL1       -0.4371
      3 O          21.8010   70.5068   -2.7642 O.2     1  UNL1       -0.5170
      4 O          22.7796   72.3522   -4.3811 O.3     1  UNL1       -0.3112
      5 C          21.4855   72.5861   -4.9102 C.3     1  UNL1        0.1811
      6 O          20.5806   70.5975   -5.9106 O.3     1  UNL1       -0.3308
      7 O          20.8877   72.0057   -8.5401 O.3     1  UNL1       -0.3794
      8 O          18.2279   72.2979   -8.0152 O.3     1  UNL1       -0.3779
      9 C          20.5281   72.5398   -7.2661 C.3     1  UNL1        0.1713
     10 C          19.1057   72.1548   -6.9177 C.3     1  UNL1        0.1895
     11 C          21.3283   71.7986   -6.2031 C.3     1  UNL1        0.1764
     12 C          19.2675   70.7078   -6.4841 C.3     1  UNL1        0.2383
     13 H          21.8164   72.2440   -8.7025 H       1  UNL1        0.2105
     14 H          18.2645   73.2272   -8.3001 H       1  UNL1        0.2106
     15 O          16.6887   69.7319   -7.0946 O.2     1  UNL1       -0.2464
     16 O          15.6194   69.2426   -2.6386 O.2     1  UNL1       -0.2670
     17 N          18.2951   70.3175   -5.5035 N.ar    1  UNL1       -0.2551
     18 N          16.1577   69.4894   -4.8753 N.ar    1  UNL1       -0.2743
     19 C          17.0285   69.8411   -5.9151 C.ar    1  UNL1        0.3323
     20 C          18.6005   70.4087   -4.1500 C.ar    1  UNL1        0.0869
     21 C          17.7596   70.0689   -3.1706 C.ar    1  UNL1        0.0795
     22 C          16.4162   69.5629   -3.5153 C.ar    1  UNL1        0.2626
     23 H          15.2411   69.1449   -5.1478 H       1  UNL1        0.1734
     24 O          23.1094   72.6052   -1.8846 O.3     1  UNL1       -0.2703
     25 P          22.1316   73.7934   -1.3900 P.3     1  UNL1        0.2208
     26 O          20.6641   73.1159   -1.4509 O.3     1  UNL1       -0.4371
     27 O          22.2604   75.0654   -2.1781 O.2     1  UNL1       -0.5170
     28 O          22.4437   73.9507    0.1854 O.3     1  UNL1       -0.2858
     29 O          22.6650   71.8644    1.2799 O.3     1  UNL1       -0.3226
     30 O          22.7549   74.5333    4.4656 O.3     1  UNL1       -0.3794
     31 O          20.8974   74.9299    2.2524 O.3     1  UNL1       -0.3775
     32 O          23.1798   71.8280    4.1035 O.3     1  UNL1       -0.3792
     33 C          22.9727   74.0369    3.1479 C.3     1  UNL1        0.1718
     34 C          21.6358   73.7313    2.4641 C.3     1  UNL1        0.1968
     35 C          23.8210   72.7650    3.2318 C.3     1  UNL1        0.1723
     36 C          21.8618   73.0377    1.1149 C.3     1  UNL1        0.2706
     37 C          23.9462   72.1392    1.8444 C.3     1  UNL1        0.1830
     38 H          23.6258   74.7102    4.8602 H       1  UNL1        0.2105
     39 H          20.0662   74.6882    1.8103 H       1  UNL1        0.2106
     40 H          22.4091   71.4551    3.6429 H       1  UNL1        0.2106
     41 O          25.7643   70.9119    2.6764 O.co2   1  UNL1       -0.5466
     42 O          24.2963   69.8069    1.3270 O.co2   1  UNL1       -0.5466
     43 C          24.6580   70.8249    1.8991 C.2     1  UNL1        0.0799
@<TRIPOS>UNITY_ATOM_ATTR
41 1
charge -1
@<TRIPOS>BOND
     1     1     4    1
     2     1    24    1
     3     1     2    1
     4     1     3    2
     5    25    28    1
     6    25    24    1
     7    25    26    1
     8    25    27    2
     9     6    11    1
    10     6    12    1
    11    29    36    1
    12    29    37    1
    13     7     9    1
    14     7    13    1
    15     8    10    1
    16     8    14    1
    17     4     5    1
    18    28    36    1
    19    30    33    1
    20    30    38    1
    21    31    34    1
    22    31    39    1
    23    32    35    1
    24    32    40    1
    25    41    43   ar
    26    15    19    2
    27    42    43   ar
    28    16    22    2
    29    17    12    1
    30    17    19   ar
    31    17    20   ar
    32    18    19   ar
    33    18    22   ar
    34    18    23    1
    35     9    10    1
    36     9    11    1
    37    10    12    1
    38    11     5    1
    39    33    34    1
    40    33    35    1
    41    34    36    1
    42    35    37    1
    43    37    43    1
    44    20    21   ar
    45    21    22   ar
@<TRIPOS>MOLECULE
UDP-glaA
 43 45 0 0 0
SMALL
GASTEIGER

@<TRIPOS>ATOM
      1 P          21.4983   72.6125   -4.8188 P.3     1  UNL1        0.2189
      2 O          21.3490   74.2215   -4.7397 O.3     1  UNL1       -0.4371
      3 O          22.4071   72.1138   -5.9039 O.2     1  UNL1       -0.5170
      4 O          19.9717   72.0821   -4.8814 O.3     1  UNL1       -0.3112
      5 C          19.4510   71.3833   -3.7634 C.3     1  UNL1        0.1811
      6 O          17.5494   71.7697   -5.1808 O.3     1  UNL1       -0.3308
      7 O          15.9696   70.1991   -3.1736 O.3     1  UNL1       -0.3794
      8 O          16.3931   68.3759   -5.1566 O.3     1  UNL1       -0.3779
      9 C          17.3152   70.0107   -3.6113 C.3     1  UNL1        0.1713
     10 C          17.3361   69.4164   -5.0038 C.3     1  UNL1        0.1895
     11 C          17.9309   71.3845   -3.8417 C.3     1  UNL1        0.1764
     12 C          17.0174   70.6249   -5.8676 C.3     1  UNL1        0.2383
     13 H          16.0060   70.6166   -2.2961 H       1  UNL1        0.2105
     14 H          16.6015   67.6927   -4.4962 H       1  UNL1        0.2106
     15 O          15.5756   70.7068   -8.2944 O.2     1  UNL1       -0.2464
     16 O          19.4189   70.2936  -10.8038 O.2     1  UNL1       -0.2670
     17 N          17.6157   70.5414   -7.1693 N.ar    1  UNL1       -0.2551
     18 N          17.4903   70.5005   -9.5424 N.ar    1  UNL1       -0.2743
     19 C          16.8021   70.5913   -8.3253 C.ar    1  UNL1        0.3323
     20 C          18.9946   70.4113   -7.2913 C.ar    1  UNL1        0.0869
     21 C          19.6359   70.3264   -8.4590 C.ar    1  UNL1        0.0795
     22 C          18.8597   70.3698   -9.7141 C.ar    1  UNL1        0.2626
     23 H          16.9255   70.5336  -10.3868 H       1  UNL1        0.1734
     24 O          21.9588   72.2173   -3.3198 O.3     1  UNL1       -0.2703
     25 P          23.4300   72.0735   -2.6659 P.3     1  UNL1        0.2208
     26 O          24.1756   73.4327   -3.1273 O.3     1  UNL1       -0.4371
     27 O          24.1515   70.8116   -3.0439 O.2     1  UNL1       -0.5170
     28 O          23.1923   72.2562   -1.0803 O.3     1  UNL1       -0.2858
     29 O          24.5289   71.3196    0.6331 O.3     1  UNL1       -0.3226
     30 O          20.8603   71.7665    2.5361 O.3     1  UNL1       -0.3794
     31 O          20.9944   70.8236   -0.2205 O.3     1  UNL1       -0.3775
     32 O          23.4345   71.0920    3.2768 O.3     1  UNL1       -0.3792
     33 C          21.9356   72.0597    1.6484 C.3     1  UNL1        0.1718
     34 C          22.1233   70.9198    0.6415 C.3     1  UNL1        0.1968
     35 C          23.2153   72.2517    2.4669 C.3     1  UNL1        0.1723
     36 C          23.3820   71.1450   -0.2054 C.3     1  UNL1        0.2706
     37 C          24.4052   72.4258    1.5258 C.3     1  UNL1        0.1830
     38 H          20.7797   72.5118    3.1555 H       1  UNL1        0.2105
     39 H          21.1625   70.0973   -0.8442 H       1  UNL1        0.2106
     40 H          23.7392   70.3681    2.7038 H       1  UNL1        0.2106
     41 O          26.0290   73.7714    2.5536 O.co2   1  UNL1       -0.5466
     42 O          26.3610   71.5168    2.6112 O.co2   1  UNL1       -0.5466
     43 C          25.6952   72.4871    2.2802 C.2     1  UNL1        0.0799
@<TRIPOS>UNITY_ATOM_ATTR
41 1
charge -1
@<TRIPOS>BOND
     1     1     4    1
     2     1    24    1
     3     1     2    1
     4     1     3    2
     5    25    28    1
     6    25    24    1
     7    25    26    1
     8    25    27    2
     9     6    11    1
    10     6    12    1
    11    29    36    1
    12    29    37    1
    13     7     9    1
    14     7    13    1
    15     8    10    1
    16     8    14    1
    17     4     5    1
    18    28    36    1
    19    30    33    1
    20    30    38    1
    21    31    34    1
    22    31    39    1
    23    32    35    1
    24    32    40    1
    25    41    43   ar
    26    15    19    2
    27    42    43   ar
    28    16    22    2
    29    17    12    1
    30    17    19   ar
    31    17    20   ar
    32    18    19   ar
    33    18    22   ar
    34    18    23    1
    35     9    10    1
    36     9    11    1
    37    10    12    1
    38    11     5    1
    39    33    34    1
    40    33    35    1
    41    34    36    1
    42    35    37    1
    43    37    43    1
    44    20    21   ar
    45    21    22   ar
@<TRIPOS>MOLECULE
UDP-glaA
 43 45 0 0 0
SMALL
GASTEIGER

@<TRIPOS>ATOM
      1 P          23.0725   72.0867   -3.7380 P.3     1  UNL1        0.2189
      2 O          23.7704   72.7942   -5.0146 O.3     1  UNL1       -0.4371
      3 O          23.8902   71.0112   -3.0848 O.2     1  UNL1       -0.5170
      4 O          21.6226   71.6299   -4.2899 O.3     1  UNL1       -0.3112
      5 C          20.9608   70.5543   -3.6462 C.3     1  UNL1        0.1811
      6 O          18.9882   71.5987   -4.5362 O.3     1  UNL1       -0.3308
      7 O          17.4964   70.2460   -2.3144 O.3     1  UNL1       -0.3794
      8 O          16.9558   68.6460   -4.4553 O.3     1  UNL1       -0.3779
      9 C          18.6087   69.7735   -3.0743 C.3     1  UNL1        0.1713
     10 C          18.1637   69.3783   -4.4665 C.3     1  UNL1        0.1895
     11 C          19.5224   70.9589   -3.3562 C.3     1  UNL1        0.1764
     12 C          18.0215   70.7288   -5.1478 C.3     1  UNL1        0.2383
     13 H          17.8354   70.5233   -1.4462 H       1  UNL1        0.2105
     14 H          17.0993   67.8531   -3.9104 H       1  UNL1        0.2106
     15 O          16.0568   70.1996   -7.1062 O.2     1  UNL1       -0.2464
     16 O          19.1284   70.4921  -10.5293 O.2     1  UNL1       -0.2670
     17 N          18.2797   70.6614   -6.5578 N.ar    1  UNL1       -0.2551
     18 N          17.5877   70.3451   -8.8094 N.ar    1  UNL1       -0.2743
     19 C          17.2228   70.3884   -7.4574 C.ar    1  UNL1        0.3323
     20 C          19.5692   70.8646   -7.0368 C.ar    1  UNL1        0.0869
     21 C          19.9009   70.8204   -8.3290 C.ar    1  UNL1        0.0795
     22 C          18.8561   70.5401   -9.3337 C.ar    1  UNL1        0.2626
     23 H          16.8441   70.1497   -9.4743 H       1  UNL1        0.1734
     24 O          22.7177   73.3393   -2.7786 O.3     1  UNL1       -0.2703
     25 P          23.6390   74.5486   -2.2296 P.3     1  UNL1        0.2208
     26 O          22.5582   75.6710   -1.7957 O.3     1  UNL1       -0.4371
     27 O          24.6725   75.0287   -3.2080 O.2     1  UNL1       -0.5170
     28 O          24.2427   74.0027   -0.8363 O.3     1  UNL1       -0.2858
     29 O          22.4217   73.1913    0.4383 O.3     1  UNL1       -0.3226
     30 O          25.6466   72.4415    2.9517 O.3     1  UNL1       -0.3794
     31 O          25.4914   74.9331    1.4436 O.3     1  UNL1       -0.3775
     32 O          22.9563   71.8177    2.9013 O.3     1  UNL1       -0.3792
     33 C          24.9248   72.5873    1.7318 C.3     1  UNL1        0.1718
     34 C          24.4066   74.0221    1.5857 C.3     1  UNL1        0.1968
     35 C          23.7512   71.6038    1.7303 C.3     1  UNL1        0.1723
     36 C          23.4861   74.1455    0.3651 C.3     1  UNL1        0.2706
     37 C          22.8832   71.8425    0.4967 C.3     1  UNL1        0.1830
     38 H          25.9528   71.5200    3.0030 H       1  UNL1        0.2105
     39 H          25.1154   75.8240    1.3450 H       1  UNL1        0.2106
     40 H          22.4522   72.6410    2.7863 H       1  UNL1        0.2106
     41 O          20.6690   71.5530   -0.2224 O.co2   1  UNL1       -0.5466
     42 O          21.5448   69.9322    1.1204 O.co2   1  UNL1       -0.5466
     43 C          21.6536   70.9914    0.5199 C.2     1  UNL1        0.0799
@<TRIPOS>UNITY_ATOM_ATTR
41 1
charge -1
@<TRIPOS>BOND
     1     1     4    1
     2     1    24    1
     3     1     2    1
     4     1     3    2
     5    25    28    1
     6    25    24    1
     7    25    26    1
     8    25    27    2
     9     6    11    1
    10     6    12    1
    11    29    36    1
    12    29    37    1
    13     7     9    1
    14     7    13    1
    15     8    10    1
    16     8    14    1
    17     4     5    1
    18    28    36    1
    19    30    33    1
    20    30    38    1
    21    31    34    1
    22    31    39    1
    23    32    35    1
    24    32    40    1
    25    41    43   ar
    26    15    19    2
    27    42    43   ar
    28    16    22    2
    29    17    12    1
    30    17    19   ar
    31    17    20   ar
    32    18    19   ar
    33    18    22   ar
    34    18    23    1
    35     9    10    1
    36     9    11    1
    37    10    12    1
    38    11     5    1
    39    33    34    1
    40    33    35    1
    41    34    36    1
    42    35    37    1
    43    37    43    1
    44    20    21   ar
    45    21    22   ar
@<TRIPOS>MOLECULE
UDP-glaA
 43 45 0 0 0
SMALL
GASTEIGER

@<TRIPOS>ATOM
      1 P          21.2459   71.5269   -2.5658 P.3     1  UNL1        0.2189
      2 O          21.4532   70.2436   -3.5288 O.3     1  UNL1       -0.4371
      3 O          21.8680   71.4046   -1.2055 O.2     1  UNL1       -0.5170
      4 O          19.6483   71.7770   -2.5882 O.3     1  UNL1       -0.3112
      5 C          19.0608   72.2992   -3.7678 C.3     1  UNL1        0.1811
      6 O          17.1459   72.0025   -5.1888 O.3     1  UNL1       -0.3308
      7 O          16.0268   70.2782   -3.0057 O.3     1  UNL1       -0.3794
      8 O          16.9593   68.4436   -4.7947 O.3     1  UNL1       -0.3779
      9 C          17.3787   70.4195   -3.4417 C.3     1  UNL1        0.1713
     10 C          17.5804   69.7120   -4.7650 C.3     1  UNL1        0.1895
     11 C          17.5994   71.8774   -3.8228 C.3     1  UNL1        0.1764
     12 C          16.9561   70.6909   -5.7448 C.3     1  UNL1        0.2383
     13 H          15.9357   70.7788   -2.1770 H       1  UNL1        0.2105
     14 H          17.3370   67.9157   -4.0702 H       1  UNL1        0.2106
     15 O          15.5372   70.5941   -8.1846 O.2     1  UNL1       -0.2464
     16 O          19.4272   70.4911  -10.6536 O.2     1  UNL1       -0.2670
     17 N          17.5725   70.6388   -7.0397 N.ar    1  UNL1       -0.2551
     18 N          17.4752   70.5423   -9.4125 N.ar    1  UNL1       -0.2743
     19 C          16.7694   70.5918   -8.2031 C.ar    1  UNL1        0.3323
     20 C          18.9588   70.6345   -7.1478 C.ar    1  UNL1        0.0869
     21 C          19.6168   70.5875   -8.3082 C.ar    1  UNL1        0.0795
     22 C          18.8525   70.5355   -9.5703 C.ar    1  UNL1        0.2626
     23 H          16.9183   70.5073  -10.2620 H       1  UNL1        0.1734
     24 O          21.8170   72.7471   -3.4602 O.3     1  UNL1       -0.2703
     25 P          23.3040   73.3696   -3.5786 P.3     1  UNL1        0.2208
     26 O          24.2044   72.0991   -4.0157 O.3     1  UNL1       -0.4371
     27 O          23.7796   74.0689   -2.3374 O.2     1  UNL1       -0.5170
     28 O          23.2524   74.3050   -4.8924 O.3     1  UNL1       -0.2858
     29 O          21.4733   75.5861   -5.7831 O.3     1  UNL1       -0.3226
     30 O          23.5191   74.4337   -9.2132 O.3     1  UNL1       -0.3794
     31 O          23.1240   72.5512   -7.0209 O.3     1  UNL1       -0.3775
     32 O          21.4443   76.1500   -8.5973 O.3     1  UNL1       -0.3792
     33 C          23.3232   74.8245   -7.8570 C.3     1  UNL1        0.1718
     34 C          22.4485   73.7999   -7.1267 C.3     1  UNL1        0.1968
     35 C          22.6518   76.2004   -7.8302 C.3     1  UNL1        0.1723
     36 C          22.0902   74.2959   -5.7203 C.3     1  UNL1        0.2706
     37 C          22.3043   76.5739   -6.3908 C.3     1  UNL1        0.1830
     38 H          24.0746   75.1105   -9.6362 H       1  UNL1        0.2105
     39 H          22.5374   71.9397   -6.5449 H       1  UNL1        0.2106
     40 H          20.7772   75.6561   -8.0911 H       1  UNL1        0.2106
     41 O          20.1981   77.6065   -6.3540 O.co2   1  UNL1       -0.5466
     42 O          22.0239   78.9685   -6.2612 O.co2   1  UNL1       -0.5466
     43 C          21.5303   77.8521   -6.3288 C.2     1  UNL1        0.0799
@<TRIPOS>UNITY_ATOM_ATTR
41 1
charge -1
@<TRIPOS>BOND
     1     1     4    1
     2     1    24    1
     3     1     2    1
     4     1     3    2
     5    25    28    1
     6    25    24    1
     7    25    26    1
     8    25    27    2
     9     6    11    1
    10     6    12    1
    11    29    36    1
    12    29    37    1
    13     7     9    1
    14     7    13    1
    15     8    10    1
    16     8    14    1
    17     4     5    1
    18    28    36    1
    19    30    33    1
    20    30    38    1
    21    31    34    1
    22    31    39    1
    23    32    35    1
    24    32    40    1
    25    41    43   ar
    26    15    19    2
    27    42    43   ar
    28    16    22    2
    29    17    12    1
    30    17    19   ar
    31    17    20   ar
    32    18    19   ar
    33    18    22   ar
    34    18    23    1
    35     9    10    1
    36     9    11    1
    37    10    12    1
    38    11     5    1
    39    33    34    1
    40    33    35    1
    41    34    36    1
    42    35    37    1
    43    37    43    1
    44    20    21   ar
    45    21    22   ar
@<TRIPOS>MOLECULE
UDP-glaA
 43 45 0 0 0
SMALL
GASTEIGER

@<TRIPOS>ATOM
      1 P          23.0192   71.4091   -2.5924 P.3     1  UNL1        0.2189
      2 O          21.8274   70.3454   -2.8484 O.3     1  UNL1       -0.4371
      3 O          24.3501   71.0185   -3.1654 O.2     1  UNL1       -0.5170
      4 O          22.9865   71.6537   -0.9941 O.3     1  UNL1       -0.3112
      5 C          22.2717   70.7371   -0.1829 C.3     1  UNL1        0.1811
      6 O          22.6187   71.2795    2.1322 O.3     1  UNL1       -0.3308
      7 O          20.6343   73.4891    1.7186 O.3     1  UNL1       -0.3794
      8 O          23.0206   74.8046    1.6146 O.3     1  UNL1       -0.3779
      9 C          21.6213   72.9818    0.8208 C.3     1  UNL1        0.1713
     10 C          23.0008   73.4421    1.2423 C.3     1  UNL1        0.1895
     11 C          21.7118   71.4752    1.0247 C.3     1  UNL1        0.1764
     12 C          23.3011   72.5140    2.4070 C.3     1  UNL1        0.2383
     13 H          19.7741   73.1373    1.4325 H       1  UNL1        0.2105
     14 H          22.7127   75.3214    0.8502 H       1  UNL1        0.2106
     15 O          24.5209   70.0263    1.8602 O.2     1  UNL1       -0.2464
     16 O          28.6950   71.6170    2.9940 O.2     1  UNL1       -0.2670
     17 N          24.7044   72.2503    2.5501 N.ar    1  UNL1       -0.2551
     18 N          26.5985   70.8199    2.4257 N.ar    1  UNL1       -0.2743
     19 C          25.2161   70.9661    2.2502 C.ar    1  UNL1        0.3323
     20 C          25.5585   73.2582    2.9836 C.ar    1  UNL1        0.0869
     21 C          26.8744   73.1032    3.1455 C.ar    1  UNL1        0.0795
     22 C          27.4884   71.7924    2.8548 C.ar    1  UNL1        0.2626
     23 H          26.9884   69.9048    2.2166 H       1  UNL1        0.1734
     24 O          22.4094   72.7855   -3.1829 O.3     1  UNL1       -0.2703
     25 P          22.0623   73.2272   -4.6985 P.3     1  UNL1        0.2208
     26 O          23.1152   72.3760   -5.5834 O.3     1  UNL1       -0.4371
     27 O          22.1102   74.7097   -4.9344 O.2     1  UNL1       -0.5170
     28 O          20.6301   72.5494   -5.0042 O.3     1  UNL1       -0.2858
     29 O          19.8140   70.3370   -5.2002 O.3     1  UNL1       -0.3226
     30 O          17.8785   72.2604   -8.3361 O.3     1  UNL1       -0.3794
     31 O          20.6780   72.8305   -7.7503 O.3     1  UNL1       -0.3775
     32 O          17.7480   69.7860   -7.1152 O.3     1  UNL1       -0.3792
     33 C          18.4713   72.0899   -7.0516 C.3     1  UNL1        0.1718
     34 C          19.9563   71.7383   -7.1908 C.3     1  UNL1        0.1968
     35 C          17.7350   70.9702   -6.3111 C.3     1  UNL1        0.1723
     36 C          20.5611   71.3852   -5.8263 C.3     1  UNL1        0.2706
     37 C          18.4439   70.6754   -4.9909 C.3     1  UNL1        0.1830
     38 H          16.9407   72.4787   -8.1998 H       1  UNL1        0.2105
     39 H          21.6113   72.5656   -7.8102 H       1  UNL1        0.2106
     40 H          18.6431   69.4072   -7.0926 H       1  UNL1        0.2106
     41 O          18.5807   69.1428   -3.2200 O.co2   1  UNL1       -0.5466
     42 O          16.8064   68.9368   -4.6365 O.co2   1  UNL1       -0.5466
     43 C          17.8355   69.5004   -4.2936 C.2     1  UNL1        0.0799
@<TRIPOS>UNITY_ATOM_ATTR
41 1
charge -1
@<TRIPOS>BOND
     1     1     4    1
     2     1    24    1
     3     1     2    1
     4     1     3    2
     5    25    28    1
     6    25    24    1
     7    25    26    1
     8    25    27    2
     9     6    11    1
    10     6    12    1
    11    29    36    1
    12    29    37    1
    13     7     9    1
    14     7    13    1
    15     8    10    1
    16     8    14    1
    17     4     5    1
    18    28    36    1
    19    30    33    1
    20    30    38    1
    21    31    34    1
    22    31    39    1
    23    32    35    1
    24    32    40    1
    25    41    43   ar
    26    15    19    2
    27    42    43   ar
    28    16    22    2
    29    17    12    1
    30    17    19   ar
    31    17    20   ar
    32    18    19   ar
    33    18    22   ar
    34    18    23    1
    35     9    10    1
    36     9    11    1
    37    10    12    1
    38    11     5    1
    39    33    34    1
    40    33    35    1
    41    34    36    1
    42    35    37    1
    43    37    43    1
    44    20    21   ar
    45    21    22   ar
@<TRIPOS>MOLECULE
UDP-glaA
 43 45 0 0 0
SMALL
GASTEIGER

@<TRIPOS>ATOM
      1 P          21.2144   73.3783   -5.1703 P.3     1  UNL1        0.2189
      2 O          20.3198   74.6911   -4.8646 O.3     1  UNL1       -0.4371
      3 O          22.0245   73.4439   -6.4318 O.2     1  UNL1       -0.5170
      4 O          20.1588   72.1567   -5.0756 O.3     1  UNL1       -0.3112
      5 C          19.6787   71.7737   -3.7980 C.3     1  UNL1        0.1811
      6 O          17.7246   72.1496   -5.1450 O.3     1  UNL1       -0.3308
      7 O          16.2076   70.6670   -3.0256 O.3     1  UNL1       -0.3794
      8 O          16.5173   68.7781   -4.9677 O.3     1  UNL1       -0.3779
      9 C          17.5301   70.4427   -3.5137 C.3     1  UNL1        0.1713
     10 C          17.4822   69.8066   -4.8869 C.3     1  UNL1        0.1895
     11 C          18.1569   71.7983   -3.8120 C.3     1  UNL1        0.1764
     12 C          17.1459   70.9938   -5.7732 C.3     1  UNL1        0.2383
     13 H          16.2880   71.1100   -2.1637 H       1  UNL1        0.2105
     14 H          16.7430   68.1116   -4.2961 H       1  UNL1        0.2106
     15 O          16.1055   72.2851   -8.0592 O.2     1  UNL1       -0.2464
     16 O          19.3015   70.4087  -10.7985 O.2     1  UNL1       -0.2670
     17 N          17.6866   70.8611   -7.0958 N.ar    1  UNL1       -0.2551
     18 N          17.6974   71.3495   -9.4218 N.ar    1  UNL1       -0.2743
     19 C          17.0890   71.5517   -8.1760 C.ar    1  UNL1        0.3323
     20 C          18.7973   70.0532   -7.3128 C.ar    1  UNL1        0.0869
     21 C          19.3660   69.8710   -8.5066 C.ar    1  UNL1        0.0795
     22 C          18.8025   70.5557   -9.6870 C.ar    1  UNL1        0.2626
     23 H          17.2842   71.8356  -10.2131 H       1  UNL1        0.1734
     24 O          22.0858   73.2108   -3.8183 O.3     1  UNL1       -0.2703
     25 P          23.5278   73.8127   -3.4049 P.3     1  UNL1        0.2208
     26 O          23.3919   75.3833   -3.7667 O.3     1  UNL1       -0.4371
     27 O          24.6925   73.1247   -4.0576 O.2     1  UNL1       -0.5170
     28 O          23.5438   73.7649   -1.7921 O.3     1  UNL1       -0.2858
     29 O          22.1119   72.4511   -0.4419 O.3     1  UNL1       -0.3226
     30 O          23.1035   75.5713    2.1195 O.3     1  UNL1       -0.3794
     31 O          22.5337   76.0879   -0.6938 O.3     1  UNL1       -0.3775
     32 O          21.7801   73.1551    2.3209 O.3     1  UNL1       -0.3792
     33 C          23.2668   74.6041    1.0859 C.3     1  UNL1        0.1718
     34 C          22.2597   74.8521   -0.0421 C.3     1  UNL1        0.1968
     35 C          23.0576   73.2073    1.6773 C.3     1  UNL1        0.1723
     36 C          22.3110   73.7194   -1.0749 C.3     1  UNL1        0.2706
     37 C          23.0876   72.1671    0.5596 C.3     1  UNL1        0.1830
     38 H          23.7579   75.3746    2.8113 H       1  UNL1        0.2105
     39 H          21.8788   76.1967   -1.4037 H       1  UNL1        0.2106
     40 H          21.0904   73.1247    1.6364 H       1  UNL1        0.2106
     41 O          23.8897   70.1046    1.3384 O.co2   1  UNL1       -0.5466
     42 O          21.6275   70.3680    1.2388 O.co2   1  UNL1       -0.5466
     43 C          22.7585   70.8017    1.0739 C.2     1  UNL1        0.0799
@<TRIPOS>UNITY_ATOM_ATTR
41 1
charge -1
@<TRIPOS>BOND
     1     1     4    1
     2     1    24    1
     3     1     2    1
     4     1     3    2
     5    25    28    1
     6    25    24    1
     7    25    26    1
     8    25    27    2
     9     6    11    1
    10     6    12    1
    11    29    36    1
    12    29    37    1
    13     7     9    1
    14     7    13    1
    15     8    10    1
    16     8    14    1
    17     4     5    1
    18    28    36    1
    19    30    33    1
    20    30    38    1
    21    31    34    1
    22    31    39    1
    23    32    35    1
    24    32    40    1
    25    41    43   ar
    26    15    19    2
    27    42    43   ar
    28    16    22    2
    29    17    12    1
    30    17    19   ar
    31    17    20   ar
    32    18    19   ar
    33    18    22   ar
    34    18    23    1
    35     9    10    1
    36     9    11    1
    37    10    12    1
    38    11     5    1
    39    33    34    1
    40    33    35    1
    41    34    36    1
    42    35    37    1
    43    37    43    1
    44    20    21   ar
    45    21    22   ar
@<TRIPOS>MOLECULE
UDP-glaA
 43 45 0 0 0
SMALL
GASTEIGER

@<TRIPOS>ATOM
      1 P          22.9018   71.8504   -2.3647 P.3     1  UNL1        0.2189
      2 O          23.2396   73.3306   -1.8058 O.3     1  UNL1       -0.4371
      3 O          23.9537   71.2541   -3.2535 O.2     1  UNL1       -0.5170
      4 O          21.4327   72.0081   -3.0223 O.3     1  UNL1       -0.3112
      5 C          20.7450   70.8385   -3.4324 C.3     1  UNL1        0.1811
      6 O          18.6791   71.6103   -4.3867 O.3     1  UNL1       -0.3308
      7 O          17.3116   70.0198   -2.2439 O.3     1  UNL1       -0.3794
      8 O          17.0842   68.3992   -4.4251 O.3     1  UNL1       -0.3779
      9 C          18.5074   69.7231   -2.9648 C.3     1  UNL1        0.1713
     10 C          18.1756   69.2948   -4.3787 C.3     1  UNL1        0.1895
     11 C          19.2539   71.0306   -3.1948 C.3     1  UNL1        0.1764
     12 C          17.8692   70.6240   -5.0476 C.3     1  UNL1        0.2383
     13 H          17.5750   70.3262   -1.3594 H       1  UNL1        0.2105
     14 H          17.3180   67.6246   -3.8852 H       1  UNL1        0.2106
     15 O          20.4677   70.2606   -6.0921 O.2     1  UNL1       -0.2464
     16 O          18.9712   70.6286  -10.4353 O.2     1  UNL1       -0.2670
     17 N          18.1872   70.6198   -6.4469 N.ar    1  UNL1       -0.2551
     18 N          19.7209   70.4446   -8.2542 N.ar    1  UNL1       -0.2743
     19 C          19.5245   70.4299   -6.8670 C.ar    1  UNL1        0.3323
     20 C          17.1795   70.8026   -7.3874 C.ar    1  UNL1        0.0869
     21 C          17.3827   70.8135   -8.7066 C.ar    1  UNL1        0.0795
     22 C          18.7507   70.6232   -9.2282 C.ar    1  UNL1        0.2626
     23 H          20.6746   70.3107   -8.5791 H       1  UNL1        0.1734
     24 O          22.6068   71.0117   -1.0139 O.3     1  UNL1       -0.2703
     25 P          21.7275   71.3792    0.2916 P.3     1  UNL1        0.2208
     26 O          21.5710   69.9570    1.0460 O.3     1  UNL1       -0.4371
     27 O          20.4268   72.0648   -0.0148 O.2     1  UNL1       -0.5170
     28 O          22.7256   72.2317    1.2302 O.3     1  UNL1       -0.2858
     29 O          24.3086   72.1238    2.9857 O.3     1  UNL1       -0.3226
     30 O          21.3070   74.4606    4.6619 O.3     1  UNL1       -0.3794
     31 O          20.6391   72.1336    3.0357 O.3     1  UNL1       -0.3775
     32 O          23.8749   73.7038    5.3425 O.3     1  UNL1       -0.3792
     33 C          22.1608   73.9246    3.6549 C.3     1  UNL1        0.1718
     34 C          21.9475   72.4128    3.5226 C.3     1  UNL1        0.1968
     35 C          23.6157   74.2173    4.0317 C.3     1  UNL1        0.1723
     36 C          22.9786   71.8003    2.5666 C.3     1  UNL1        0.2706
     37 C          24.5511   73.5287    3.0403 C.3     1  UNL1        0.1830
     38 H          21.4775   75.4166    4.7125 H       1  UNL1        0.2105
     39 H          20.5542   71.1683    2.9596 H       1  UNL1        0.2106
     40 H          23.9340   72.7349    5.2885 H       1  UNL1        0.2106
     41 O          26.7144   72.6212    3.0189 O.co2   1  UNL1       -0.5466
     42 O          26.4401   74.6264    4.0683 O.co2   1  UNL1       -0.5466
     43 C          25.9834   73.6798    3.4439 C.2     1  UNL1        0.0799
@<TRIPOS>UNITY_ATOM_ATTR
41 1
charge -1
@<TRIPOS>BOND
     1     1     4    1
     2     1    24    1
     3     1     2    1
     4     1     3    2
     5    25    28    1
     6    25    24    1
     7    25    26    1
     8    25    27    2
     9     6    11    1
    10     6    12    1
    11    29    36    1
    12    29    37    1
    13     7     9    1
    14     7    13    1
    15     8    10    1
    16     8    14    1
    17     4     5    1
    18    28    36    1
    19    30    33    1
    20    30    38    1
    21    31    34    1
    22    31    39    1
    23    32    35    1
    24    32    40    1
    25    41    43   ar
    26    15    19    2
    27    42    43   ar
    28    16    22    2
    29    17    12    1
    30    17    19   ar
    31    17    20   ar
    32    18    19   ar
    33    18    22   ar
    34    18    23    1
    35     9    10    1
    36     9    11    1
    37    10    12    1
    38    11     5    1
    39    33    34    1
    40    33    35    1
    41    34    36    1
    42    35    37    1
    43    37    43    1
    44    20    21   ar
    45    21    22   ar
@<TRIPOS>MOLECULE
UDP-glaA
 43 45 0 0 0
SMALL
GASTEIGER

@<TRIPOS>ATOM
      1 P          21.7772   72.4461   -5.6229 P.3     1  UNL1        0.2189
      2 O          21.0820   73.8752   -5.3201 O.3     1  UNL1       -0.4371
      3 O          23.0524   72.5169   -6.4108 O.2     1  UNL1       -0.5170
      4 O          20.5907   71.5676   -6.2832 O.3     1  UNL1       -0.3112
      5 C          20.1182   71.9264   -7.5706 C.3     1  UNL1        0.1811
      6 O          18.8785   69.9106   -7.1536 O.3     1  UNL1       -0.3308
      7 O          18.1002   70.0126  -10.0476 O.3     1  UNL1       -0.3794
      8 O          15.8815   70.9899   -8.7994 O.3     1  UNL1       -0.3779
      9 C          18.2890   71.0851   -9.1247 C.3     1  UNL1        0.1713
     10 C          17.1279   71.1542   -8.1552 C.3     1  UNL1        0.1895
     11 C          19.4482   70.7174   -8.2079 C.3     1  UNL1        0.1764
     12 C          17.4461   70.0166   -7.2000 C.3     1  UNL1        0.2383
     13 H          18.8845   69.9828  -10.6216 H       1  UNL1        0.2105
     14 H          15.8031   71.6915   -9.4685 H       1  UNL1        0.2106
     15 O          16.2942   68.0435   -5.5399 O.2     1  UNL1       -0.2464
     16 O          15.5842   71.0642   -2.1326 O.2     1  UNL1       -0.2670
     17 N          16.9524   70.2594   -5.8746 N.ar    1  UNL1       -0.2551
     18 N          15.9410   69.5491   -3.8445 N.ar    1  UNL1       -0.2743
     19 C          16.3915   69.1996   -5.1243 C.ar    1  UNL1        0.3323
     20 C          17.0266   71.5369   -5.3305 C.ar    1  UNL1        0.0869
     21 C          16.5930   71.8540   -4.1085 C.ar    1  UNL1        0.0795
     22 C          15.9929   70.8052   -3.2603 C.ar    1  UNL1        0.2626
     23 H          15.5333   68.8031   -3.2873 H       1  UNL1        0.1734
     24 O          21.9312   71.7986   -4.1490 O.3     1  UNL1       -0.2703
     25 P          23.0826   71.9752   -3.0284 P.3     1  UNL1        0.2208
     26 O          23.5401   73.5164   -3.2061 O.3     1  UNL1       -0.4371
     27 O          24.2025   70.9800   -3.1337 O.2     1  UNL1       -0.5170
     28 O          22.2925   71.9433   -1.6218 O.3     1  UNL1       -0.2858
     29 O          23.9769   72.3840   -0.0193 O.3     1  UNL1       -0.3226
     30 O          20.5396   72.3474    2.3179 O.3     1  UNL1       -0.3794
     31 O          20.9043   70.3881    0.1885 O.3     1  UNL1       -0.3775
     32 O          23.2008   72.9956    2.6755 O.3     1  UNL1       -0.3792
     33 C          21.3596   72.5631    1.1728 C.3     1  UNL1        0.1718
     34 C          21.9403   71.2357    0.6736 C.3     1  UNL1        0.1968
     35 C          22.4925   73.5222    1.5485 C.3     1  UNL1        0.1723
     36 C          22.9574   71.4757   -0.4490 C.3     1  UNL1        0.2706
     37 C          23.4627   73.6546    0.3766 C.3     1  UNL1        0.1830
     38 H          20.1965   73.2124    2.6001 H       1  UNL1        0.2105
     39 H          21.3196   69.5668   -0.1243 H       1  UNL1        0.2106
     40 H          23.7424   72.2455    2.3770 H       1  UNL1        0.2106
     41 O          25.3128   73.9309    1.7925 O.co2   1  UNL1       -0.5466
     42 O          24.9963   75.5089    0.1779 O.co2   1  UNL1       -0.5466
     43 C          24.6545   74.4804    0.7435 C.2     1  UNL1        0.0799
@<TRIPOS>UNITY_ATOM_ATTR
41 1
charge -1
@<TRIPOS>BOND
     1     1     4    1
     2     1    24    1
     3     1     2    1
     4     1     3    2
     5    25    28    1
     6    25    24    1
     7    25    26    1
     8    25    27    2
     9     6    11    1
    10     6    12    1
    11    29    36    1
    12    29    37    1
    13     7     9    1
    14     7    13    1
    15     8    10    1
    16     8    14    1
    17     4     5    1
    18    28    36    1
    19    30    33    1
    20    30    38    1
    21    31    34    1
    22    31    39    1
    23    32    35    1
    24    32    40    1
    25    41    43   ar
    26    15    19    2
    27    42    43   ar
    28    16    22    2
    29    17    12    1
    30    17    19   ar
    31    17    20   ar
    32    18    19   ar
    33    18    22   ar
    34    18    23    1
    35     9    10    1
    36     9    11    1
    37    10    12    1
    38    11     5    1
    39    33    34    1
    40    33    35    1
    41    34    36    1
    42    35    37    1
    43    37    43    1
    44    20    21   ar
    45    21    22   ar
@<TRIPOS>MOLECULE
UDP-glaA
 43 45 0 0 0
SMALL
GASTEIGER

@<TRIPOS>ATOM
      1 P          23.1734   71.7522   -2.8896 P.3     1  UNL1        0.2189
      2 O          22.9950   72.8356   -4.0778 O.3     1  UNL1       -0.4371
      3 O          24.2342   70.7183   -3.1298 O.2     1  UNL1       -0.5170
      4 O          21.6780   71.1832   -2.6533 O.3     1  UNL1       -0.3112
      5 C          20.8982   70.8370   -3.7852 C.3     1  UNL1        0.1811
      6 O          18.8978   71.7822   -4.7229 O.3     1  UNL1       -0.3308
      7 O          17.4374   70.4613   -2.4615 O.3     1  UNL1       -0.3794
      8 O          16.9641   68.7680   -4.5458 O.3     1  UNL1       -0.3779
      9 C          18.5697   69.9992   -3.1978 C.3     1  UNL1        0.1713
     10 C          18.1470   69.5395   -4.5772 C.3     1  UNL1        0.1895
     11 C          19.4454   71.2035   -3.5177 C.3     1  UNL1        0.1764
     12 C          17.9645   70.8590   -5.3076 C.3     1  UNL1        0.2383
     13 H          17.7614   70.7809   -1.6021 H       1  UNL1        0.2105
     14 H          17.1303   68.0005   -3.9718 H       1  UNL1        0.2106
     15 O          16.0617   70.0725   -7.2406 O.2     1  UNL1       -0.2464
     16 O          19.1121   70.4720  -10.6720 O.2     1  UNL1       -0.2670
     17 N          18.2339   70.7495   -6.7129 N.ar    1  UNL1       -0.2551
     18 N          17.5820   70.2715   -8.9479 N.ar    1  UNL1       -0.2743
     19 C          17.2086   70.3452   -7.5995 C.ar    1  UNL1        0.3323
     20 C          19.5032   71.0411   -7.2001 C.ar    1  UNL1        0.0869
     21 C          19.8434   70.9666   -8.4887 C.ar    1  UNL1        0.0795
     22 C          18.8312   70.5512   -9.4800 C.ar    1  UNL1        0.2626
     23 H          16.8611   69.9823   -9.6035 H       1  UNL1        0.1734
     24 O          23.4190   72.6794   -1.5876 O.3     1  UNL1       -0.2703
     25 P          22.4261   73.6787   -0.7950 P.3     1  UNL1        0.2208
     26 O          21.4178   72.6710   -0.0310 O.3     1  UNL1       -0.4371
     27 O          21.7451   74.6921   -1.6697 O.2     1  UNL1       -0.5170
     28 O          23.3352   74.3135    0.3774 O.3     1  UNL1       -0.2858
     29 O          22.1653   74.3630    2.4336 O.3     1  UNL1       -0.3226
     30 O          21.5721   70.4417    1.1883 O.3     1  UNL1       -0.3794
     31 O          24.1696   71.7253    0.8547 O.3     1  UNL1       -0.3775
     32 O          20.6168   72.0720    3.2031 O.3     1  UNL1       -0.3792
     33 C          21.7533   71.8511    1.0831 C.3     1  UNL1        0.1718
     34 C          23.1169   72.2585    1.6512 C.3     1  UNL1        0.1968
     35 C          20.6330   72.5535    1.8552 C.3     1  UNL1        0.1723
     36 C          23.2506   73.7856    1.7004 C.3     1  UNL1        0.2706
     37 C          20.8885   74.0590    1.8742 C.3     1  UNL1        0.1830
     38 H          20.6973   70.2301    0.8200 H       1  UNL1        0.2105
     39 H          25.0102   72.0165    1.2464 H       1  UNL1        0.2106
     40 H          21.3761   72.4526    3.6762 H       1  UNL1        0.2106
     41 O          20.1548   76.1009    2.7663 O.co2   1  UNL1       -0.5466
     42 O          18.9560   74.2397    3.3102 O.co2   1  UNL1       -0.5466
     43 C          19.8890   74.7729    2.7275 C.2     1  UNL1        0.0799
@<TRIPOS>UNITY_ATOM_ATTR
41 1
charge -1
@<TRIPOS>BOND
     1     1     4    1
     2     1    24    1
     3     1     2    1
     4     1     3    2
     5    25    28    1
     6    25    24    1
     7    25    26    1
     8    25    27    2
     9     6    11    1
    10     6    12    1
    11    29    36    1
    12    29    37    1
    13     7     9    1
    14     7    13    1
    15     8    10    1
    16     8    14    1
    17     4     5    1
    18    28    36    1
    19    30    33    1
    20    30    38    1
    21    31    34    1
    22    31    39    1
    23    32    35    1
    24    32    40    1
    25    41    43   ar
    26    15    19    2
    27    42    43   ar
    28    16    22    2
    29    17    12    1
    30    17    19   ar
    31    17    20   ar
    32    18    19   ar
    33    18    22   ar
    34    18    23    1
    35     9    10    1
    36     9    11    1
    37    10    12    1
    38    11     5    1
    39    33    34    1
    40    33    35    1
    41    34    36    1
    42    35    37    1
    43    37    43    1
    44    20    21   ar
    45    21    22   ar
@<TRIPOS>MOLECULE
UDP-glaA
 43 45 0 0 0
SMALL
GASTEIGER

@<TRIPOS>ATOM
      1 P          22.2736   73.0278   -4.3273 P.3     1  UNL1        0.2189
      2 O          23.8252   72.7252   -4.6713 O.3     1  UNL1       -0.4371
      3 O          21.8874   74.4774   -4.3680 O.2     1  UNL1       -0.5170
      4 O          22.0336   72.2758   -2.9158 O.3     1  UNL1       -0.3112
      5 C          21.2704   71.0814   -2.9058 C.3     1  UNL1        0.1811
      6 O          20.6190   70.6038   -0.6426 O.3     1  UNL1       -0.3308
      7 O          18.4940   72.6868   -1.0124 O.3     1  UNL1       -0.3794
      8 O          20.4049   74.0291    0.3955 O.3     1  UNL1       -0.3779
      9 C          19.8260   72.6547   -1.5245 C.3     1  UNL1        0.1713
     10 C          20.8198   72.9545   -0.4222 C.3     1  UNL1        0.1895
     11 C          20.1612   71.2100   -1.8715 C.3     1  UNL1        0.1764
     12 C          20.8672   71.6343    0.3279 C.3     1  UNL1        0.2383
     13 H          17.8969   72.4511   -1.7429 H       1  UNL1        0.2105
     14 H          20.2935   74.8070   -0.1776 H       1  UNL1        0.2106
     15 O          21.3884   71.9426    3.0863 O.2     1  UNL1       -0.2464
     16 O          25.7985   70.7053    2.5779 O.2     1  UNL1       -0.2670
     17 N          22.1420   71.3990    0.9434 N.ar    1  UNL1       -0.2551
     18 N          23.5842   71.3268    2.8312 N.ar    1  UNL1       -0.2743
     19 C          22.2986   71.5837    2.3370 C.ar    1  UNL1        0.3323
     20 C          23.2212   70.9898    0.1680 C.ar    1  UNL1        0.0869
     21 C          24.4407   70.7484    0.6542 C.ar    1  UNL1        0.0795
     22 C          24.6886   70.9185    2.0996 C.ar    1  UNL1        0.2626
     23 H          23.7202   71.4537    3.8305 H       1  UNL1        0.1734
     24 O          21.4798   72.0895   -5.3783 O.3     1  UNL1       -0.2703
     25 P          20.9683   72.3810   -6.8836 P.3     1  UNL1        0.2208
     26 O          21.6336   71.1813   -7.7404 O.3     1  UNL1       -0.4371
     27 O          21.2929   73.7576   -7.3887 O.2     1  UNL1       -0.5170
     28 O          19.3921   72.0363   -6.8539 O.3     1  UNL1       -0.2858
     29 O          18.4490   70.0823   -5.9095 O.3     1  UNL1       -0.3226
     30 O          15.5741   71.1726   -8.7068 O.3     1  UNL1       -0.3794
     31 O          18.4129   71.3667   -9.3470 O.3     1  UNL1       -0.3775
     32 O          15.7869   69.3222   -6.6671 O.3     1  UNL1       -0.3792
     33 C          16.5988   71.3337   -7.7299 C.3     1  UNL1        0.1718
     34 C          17.9007   70.6822   -8.2086 C.3     1  UNL1        0.1968
     35 C          16.1402   70.6871   -6.4200 C.3     1  UNL1        0.1723
     36 C          18.9573   70.6991   -7.0970 C.3     1  UNL1        0.2706
     37 C          17.2793   70.7235   -5.4034 C.3     1  UNL1        0.1830
     38 H          14.7702   71.5968   -8.3614 H       1  UNL1        0.2105
     39 H          19.2392   70.9259   -9.6072 H       1  UNL1        0.2106
     40 H          16.6032   68.8110   -6.8001 H       1  UNL1        0.2106
     41 O          17.9762   69.2707   -3.6983 O.co2   1  UNL1       -0.5466
     42 O          15.8266   70.0243   -3.6060 O.co2   1  UNL1       -0.5466
     43 C          16.9197   69.9873   -4.1521 C.2     1  UNL1        0.0799
@<TRIPOS>UNITY_ATOM_ATTR
41 1
charge -1
@<TRIPOS>BOND
     1     1     4    1
     2     1    24    1
     3     1     2    1
     4     1     3    2
     5    25    28    1
     6    25    24    1
     7    25    26    1
     8    25    27    2
     9     6    11    1
    10     6    12    1
    11    29    36    1
    12    29    37    1
    13     7     9    1
    14     7    13    1
    15     8    10    1
    16     8    14    1
    17     4     5    1
    18    28    36    1
    19    30    33    1
    20    30    38    1
    21    31    34    1
    22    31    39    1
    23    32    35    1
    24    32    40    1
    25    41    43   ar
    26    15    19    2
    27    42    43   ar
    28    16    22    2
    29    17    12    1
    30    17    19   ar
    31    17    20   ar
    32    18    19   ar
    33    18    22   ar
    34    18    23    1
    35     9    10    1
    36     9    11    1
    37    10    12    1
    38    11     5    1
    39    33    34    1
    40    33    35    1
    41    34    36    1
    42    35    37    1
    43    37    43    1
    44    20    21   ar
    45    21    22   ar
@<TRIPOS>MOLECULE
UDP-glaA
 43 45 0 0 0
SMALL
GASTEIGER

@<TRIPOS>ATOM
      1 P          23.5431   73.2166   -3.5277 P.3     1  UNL1        0.2189
      2 O          23.2006   71.6402   -3.4056 O.3     1  UNL1       -0.4371
      3 O          24.9262   73.5276   -4.0201 O.2     1  UNL1       -0.5170
      4 O          23.1649   73.8115   -2.0722 O.3     1  UNL1       -0.3112
      5 C          22.1676   74.8154   -1.9889 C.3     1  UNL1        0.1811
      6 O          21.2735   72.9309   -0.7957 O.3     1  UNL1       -0.3308
      7 O          19.0569   74.7608    0.0584 O.3     1  UNL1       -0.3794
      8 O          20.6634   74.7029    2.2610 O.3     1  UNL1       -0.3779
      9 C          20.4416   75.0485   -0.1353 C.3     1  UNL1        0.1713
     10 C          21.2611   74.4751    1.0015 C.3     1  UNL1        0.1895
     11 C          20.9295   74.2308   -1.3240 C.3     1  UNL1        0.1764
     12 C          21.3156   73.0007    0.6391 C.3     1  UNL1        0.2383
     13 H          18.5776   75.1121   -0.7113 H       1  UNL1        0.2105
     14 H          20.5655   75.6647    2.3688 H       1  UNL1        0.2106
     15 O          21.5943   70.2209    1.0516 O.2     1  UNL1       -0.2464
     16 O          25.9704   70.6781    2.4225 O.2     1  UNL1       -0.2670
     17 N          22.5164   72.3663    1.1026 N.ar    1  UNL1       -0.2551
     18 N          23.7731   70.4505    1.7345 N.ar    1  UNL1       -0.2743
     19 C          22.5518   70.9631    1.2776 C.ar    1  UNL1        0.3323
     20 C          23.6431   73.1328    1.3790 C.ar    1  UNL1        0.0869
     21 C          24.8003   72.6291    1.8135 C.ar    1  UNL1        0.0795
     22 C          24.9206   71.1726    2.0233 C.ar    1  UNL1        0.2626
     23 H          23.8215   69.4440    1.8681 H       1  UNL1        0.1734
     24 O          22.3520   73.7744   -4.4686 O.3     1  UNL1       -0.2703
     25 P          21.8845   73.3434   -5.9546 P.3     1  UNL1        0.2208
     26 O          22.9964   72.2530   -6.3917 O.3     1  UNL1       -0.4371
     27 O          21.7335   74.4921   -6.9103 O.2     1  UNL1       -0.5170
     28 O          20.5376   72.4844   -5.7266 O.3     1  UNL1       -0.2858
     29 O          19.6124   70.3207   -5.4777 O.3     1  UNL1       -0.3226
     30 O          17.8823   71.6040   -9.0328 O.3     1  UNL1       -0.3794
     31 O          20.6880   72.1618   -8.4645 O.3     1  UNL1       -0.3775
     32 O          17.5824   69.4612   -7.3158 O.3     1  UNL1       -0.3792
     33 C          18.4240   71.6894   -7.7177 C.3     1  UNL1        0.1718
     34 C          19.8921   71.2501   -7.7148 C.3     1  UNL1        0.1968
     35 C          17.6063   70.7907   -6.7860 C.3     1  UNL1        0.1723
     36 C          20.4335   71.1740   -6.2818 C.3     1  UNL1        0.2706
     37 C          18.2561   70.7574   -5.4044 C.3     1  UNL1        0.1830
     38 H          16.9536   71.8884   -8.9866 H       1  UNL1        0.2105
     39 H          21.6074   71.8487   -8.4263 H       1  UNL1        0.2106
     40 H          18.4550   69.0565   -7.1744 H       1  UNL1        0.2106
     41 O          18.4019   69.3690   -3.5190 O.co2   1  UNL1       -0.5466
     42 O          16.4034   69.4258   -4.6145 O.co2   1  UNL1       -0.5466
     43 C          17.5646   69.7897   -4.4976 C.2     1  UNL1        0.0799
@<TRIPOS>UNITY_ATOM_ATTR
41 1
charge -1
@<TRIPOS>BOND
     1     1     4    1
     2     1    24    1
     3     1     2    1
     4     1     3    2
     5    25    28    1
     6    25    24    1
     7    25    26    1
     8    25    27    2
     9     6    11    1
    10     6    12    1
    11    29    36    1
    12    29    37    1
    13     7     9    1
    14     7    13    1
    15     8    10    1
    16     8    14    1
    17     4     5    1
    18    28    36    1
    19    30    33    1
    20    30    38    1
    21    31    34    1
    22    31    39    1
    23    32    35    1
    24    32    40    1
    25    41    43   ar
    26    15    19    2
    27    42    43   ar
    28    16    22    2
    29    17    12    1
    30    17    19   ar
    31    17    20   ar
    32    18    19   ar
    33    18    22   ar
    34    18    23    1
    35     9    10    1
    36     9    11    1
    37    10    12    1
    38    11     5    1
    39    33    34    1
    40    33    35    1
    41    34    36    1
    42    35    37    1
    43    37    43    1
    44    20    21   ar
    45    21    22   ar
@<TRIPOS>MOLECULE
UDP-glaA
 43 45 0 0 0
SMALL
GASTEIGER

@<TRIPOS>ATOM
      1 P          21.8606   72.4326   -5.7055 P.3     1  UNL1        0.2189
      2 O          21.1874   73.8356   -5.2632 O.3     1  UNL1       -0.4371
      3 O          23.0665   72.5600   -6.5897 O.2     1  UNL1       -0.5170
      4 O          20.6271   71.5840   -6.3170 O.3     1  UNL1       -0.3112
      5 C          20.1195   71.9479   -7.5895 C.3     1  UNL1        0.1811
      6 O          18.8871   69.9287   -7.1669 O.3     1  UNL1       -0.3308
      7 O          18.1081   70.0203  -10.0611 O.3     1  UNL1       -0.3794
      8 O          15.8860   70.9929   -8.8152 O.3     1  UNL1       -0.3779
      9 C          18.2931   71.0959   -9.1411 C.3     1  UNL1        0.1713
     10 C          17.1319   71.1634   -8.1717 C.3     1  UNL1        0.1895
     11 C          19.4538   70.7348   -8.2235 C.3     1  UNL1        0.1764
     12 C          17.4543   70.0295   -7.2134 C.3     1  UNL1        0.2383
     13 H          18.8924   69.9918  -10.6352 H       1  UNL1        0.2105
     14 H          15.8050   71.6924   -9.4862 H       1  UNL1        0.2106
     15 O          16.3137   68.0558   -5.5464 O.2     1  UNL1       -0.2464
     16 O          15.5891   71.0838   -2.1486 O.2     1  UNL1       -0.2670
     17 N          16.9600   70.2740   -5.8886 N.ar    1  UNL1       -0.2551
     18 N          15.9532   69.5650   -3.8557 N.ar    1  UNL1       -0.2743
     19 C          16.4050   69.2137   -5.1346 C.ar    1  UNL1        0.3323
     20 C          17.0275   71.5537   -5.3488 C.ar    1  UNL1        0.0869
     21 C          16.5929   71.8725   -4.1277 C.ar    1  UNL1        0.0795
     22 C          15.9987   70.8233   -3.2757 C.ar    1  UNL1        0.2626
     23 H          15.5498   68.8187   -3.2959 H       1  UNL1        0.1734
     24 O          22.1377   71.7015   -4.2899 O.3     1  UNL1       -0.2703
     25 P          23.3186   71.9046   -3.2049 P.3     1  UNL1        0.2208
     26 O          23.9990   73.3015   -3.6541 O.3     1  UNL1       -0.4371
     27 O          24.2752   70.7505   -3.1125 O.2     1  UNL1       -0.5170
     28 O          22.5529   72.2479   -1.8266 O.3     1  UNL1       -0.2858
     29 O          23.2251   70.8363   -0.0504 O.3     1  UNL1       -0.3226
     30 O          20.0775   72.9468    1.6578 O.3     1  UNL1       -0.3794
     31 O          19.9031   71.9952   -1.0936 O.3     1  UNL1       -0.3775
     32 O          22.0171   71.1840    2.5300 O.3     1  UNL1       -0.3792
     33 C          21.2107   72.6991    0.8302 C.3     1  UNL1        0.1718
     34 C          20.9062   71.5808   -0.1723 C.3     1  UNL1        0.1968
     35 C          22.3936   72.3001    1.7168 C.3     1  UNL1        0.1723
     36 C          22.1691   71.1896   -0.9498 C.3     1  UNL1        0.2706
     37 C          23.5768   71.8932    0.8412 C.3     1  UNL1        0.1830
     38 H          20.3160   73.6580    2.2766 H       1  UNL1        0.2105
     39 H          19.7512   71.2608   -1.7120 H       1  UNL1        0.2106
     40 H          21.9851   70.3903    1.9695 H       1  UNL1        0.2106
     41 O          24.6772   70.0191    1.7249 O.co2   1  UNL1       -0.5466
     42 O          25.5613   72.0646    2.2059 O.co2   1  UNL1       -0.5466
     43 C          24.7123   71.3721    1.6635 C.2     1  UNL1        0.0799
@<TRIPOS>UNITY_ATOM_ATTR
41 1
charge -1
@<TRIPOS>BOND
     1     1     4    1
     2     1    24    1
     3     1     2    1
     4     1     3    2
     5    25    28    1
     6    25    24    1
     7    25    26    1
     8    25    27    2
     9     6    11    1
    10     6    12    1
    11    29    36    1
    12    29    37    1
    13     7     9    1
    14     7    13    1
    15     8    10    1
    16     8    14    1
    17     4     5    1
    18    28    36    1
    19    30    33    1
    20    30    38    1
    21    31    34    1
    22    31    39    1
    23    32    35    1
    24    32    40    1
    25    41    43   ar
    26    15    19    2
    27    42    43   ar
    28    16    22    2
    29    17    12    1
    30    17    19   ar
    31    17    20   ar
    32    18    19   ar
    33    18    22   ar
    34    18    23    1
    35     9    10    1
    36     9    11    1
    37    10    12    1
    38    11     5    1
    39    33    34    1
    40    33    35    1
    41    34    36    1
    42    35    37    1
    43    37    43    1
    44    20    21   ar
    45    21    22   ar
@<TRIPOS>MOLECULE
UDP-glaA
 43 45 0 0 0
SMALL
GASTEIGER

@<TRIPOS>ATOM
      1 P          22.9227   71.3062   -2.5521 P.3     1  UNL1        0.2189
      2 O          22.6235   72.8959   -2.5797 O.3     1  UNL1       -0.4371
      3 O          24.2575   70.9036   -3.1073 O.2     1  UNL1       -0.5170
      4 O          21.6334   70.6543   -3.2790 O.3     1  UNL1       -0.3112
      5 C          20.9278   71.4314   -4.2316 C.3     1  UNL1        0.1811
      6 O          19.1847   69.7959   -4.4787 O.3     1  UNL1       -0.3308
      7 O          19.3595   70.3284   -7.4244 O.3     1  UNL1       -0.3794
      8 O          17.1613   71.7647   -6.6891 O.3     1  UNL1       -0.3779
      9 C          19.5073   71.2356   -6.3323 C.3     1  UNL1        0.1713
     10 C          18.1584   71.5378   -5.7144 C.3     1  UNL1        0.1895
     11 C          20.2173   70.5000   -5.2034 C.3     1  UNL1        0.1764
     12 C          17.8991   70.2856   -4.8942 C.3     1  UNL1        0.2383
     13 H          20.2503   70.1342   -7.7624 H       1  UNL1        0.2105
     14 H          17.4542   72.5116   -7.2391 H       1  UNL1        0.2106
     15 O          18.0924   72.6223   -3.3200 O.2     1  UNL1       -0.2464
     16 O          14.7860   71.1828   -0.4505 O.2     1  UNL1       -0.2670
     17 N          17.1008   70.5479   -3.7309 N.ar    1  UNL1       -0.2551
     18 N          16.4462   71.9037   -1.8918 N.ar    1  UNL1       -0.2743
     19 C          17.2769   71.7520   -3.0099 C.ar    1  UNL1        0.3323
     20 C          16.1556   69.6169   -3.3146 C.ar    1  UNL1        0.0869
     21 C          15.3709   69.7764   -2.2466 C.ar    1  UNL1        0.0795
     22 C          15.4922   71.0059   -1.4385 C.ar    1  UNL1        0.2626
     23 H          16.5558   72.7617   -1.3580 H       1  UNL1        0.1734
     24 O          22.6961   70.9218   -0.9977 O.3     1  UNL1       -0.2703
     25 P          21.5339   71.3485    0.0414 P.3     1  UNL1        0.2208
     26 O          21.3950   70.0504    0.9963 O.3     1  UNL1       -0.4371
     27 O          20.2513   71.7781   -0.6113 O.2     1  UNL1       -0.5170
     28 O          22.2148   72.4730    0.9774 O.3     1  UNL1       -0.2858
     29 O          24.1635   72.5653    2.3166 O.3     1  UNL1       -0.3226
     30 O          21.3945   74.5867    4.6673 O.3     1  UNL1       -0.3794
     31 O          20.6271   72.1759    3.2164 O.3     1  UNL1       -0.3775
     32 O          24.1172   74.1248    4.7258 O.3     1  UNL1       -0.3792
     33 C          22.0452   74.1314    3.4843 C.3     1  UNL1        0.1718
     34 C          21.9740   72.6036    3.3894 C.3     1  UNL1        0.1968
     35 C          23.5067   74.5867    3.5164 C.3     1  UNL1        0.1723
     36 C          22.8163   72.0924    2.2141 C.3     1  UNL1        0.2706
     37 C          24.2567   73.9890    2.3280 C.3     1  UNL1        0.1830
     38 H          21.4662   75.5563    4.6869 H       1  UNL1        0.2105
     39 H          20.6332   71.2060    3.1522 H       1  UNL1        0.2106
     40 H          24.2680   73.1674    4.6496 H       1  UNL1        0.2106
     41 O          25.9713   75.5151    1.8434 O.co2   1  UNL1       -0.5466
     42 O          26.5722   73.5696    2.8687 O.co2   1  UNL1       -0.5466
     43 C          25.7180   74.3014    2.3898 C.2     1  UNL1        0.0799
@<TRIPOS>UNITY_ATOM_ATTR
41 1
charge -1
@<TRIPOS>BOND
     1     1     4    1
     2     1    24    1
     3     1     2    1
     4     1     3    2
     5    25    28    1
     6    25    24    1
     7    25    26    1
     8    25    27    2
     9     6    11    1
    10     6    12    1
    11    29    36    1
    12    29    37    1
    13     7     9    1
    14     7    13    1
    15     8    10    1
    16     8    14    1
    17     4     5    1
    18    28    36    1
    19    30    33    1
    20    30    38    1
    21    31    34    1
    22    31    39    1
    23    32    35    1
    24    32    40    1
    25    41    43   ar
    26    15    19    2
    27    42    43   ar
    28    16    22    2
    29    17    12    1
    30    17    19   ar
    31    17    20   ar
    32    18    19   ar
    33    18    22   ar
    34    18    23    1
    35     9    10    1
    36     9    11    1
    37    10    12    1
    38    11     5    1
    39    33    34    1
    40    33    35    1
    41    34    36    1
    42    35    37    1
    43    37    43    1
    44    20    21   ar
    45    21    22   ar
@<TRIPOS>MOLECULE
UDP-glaA
 43 45 0 0 0
SMALL
GASTEIGER

@<TRIPOS>ATOM
      1 P          20.9536   71.8277   -5.3290 P.3     1  UNL1        0.2189
      2 O          20.6623   70.6810   -4.2257 O.3     1  UNL1       -0.4371
      3 O          20.0559   73.0275   -5.2472 O.2     1  UNL1       -0.5170
      4 O          20.9337   71.0295   -6.7354 O.3     1  UNL1       -0.3112
      5 C          20.1606   71.5542   -7.8013 C.3     1  UNL1        0.1811
      6 O          18.7275   69.6809   -7.3418 O.3     1  UNL1       -0.3308
      7 O          17.8414   69.8969  -10.1983 O.3     1  UNL1       -0.3794
      8 O          15.7982   71.0966   -8.8487 O.3     1  UNL1       -0.3779
      9 C          18.1855   70.9330   -9.2785 C.3     1  UNL1        0.1713
     10 C          17.0816   71.1178   -8.2588 C.3     1  UNL1        0.1895
     11 C          19.3360   70.4319   -8.4155 C.3     1  UNL1        0.1764
     12 C          17.3145   69.9425   -7.3248 C.3     1  UNL1        0.2383
     13 H          18.5924   69.7881  -10.8063 H       1  UNL1        0.2105
     14 H          15.7681   71.8096   -9.5097 H       1  UNL1        0.2106
     15 O          16.2837   68.0170   -5.5344 O.2     1  UNL1       -0.2464
     16 O          15.7838   71.1370   -2.1797 O.2     1  UNL1       -0.2670
     17 N          16.9076   70.2237   -5.9777 N.ar    1  UNL1       -0.2551
     18 N          16.0350   69.5720   -3.8652 N.ar    1  UNL1       -0.2743
     19 C          16.4023   69.1854   -5.1609 C.ar    1  UNL1        0.3323
     20 C          17.0110   71.5173   -5.4782 C.ar    1  UNL1        0.0869
     21 C          16.6570   71.8698   -4.2404 C.ar    1  UNL1        0.0795
     22 C          16.1189   70.8453   -3.3236 C.ar    1  UNL1        0.2626
     23 H          15.6684   68.8420   -3.2604 H       1  UNL1        0.1734
     24 O          22.5245   72.1462   -5.1145 O.3     1  UNL1       -0.2703
     25 P          23.2975   72.9121   -3.9193 P.3     1  UNL1        0.2208
     26 O          22.5394   74.3388   -3.8414 O.3     1  UNL1       -0.4371
     27 O          24.7841   73.0096   -4.1102 O.2     1  UNL1       -0.5170
     28 O          22.8471   72.1365   -2.5779 O.3     1  UNL1       -0.2858
     29 O          21.4126   73.5462   -1.3311 O.3     1  UNL1       -0.3226
     30 O          21.6838   70.1964    1.1153 O.3     1  UNL1       -0.3794
     31 O          24.0414   71.2184   -0.2641 O.3     1  UNL1       -0.3775
     32 O          20.1914   72.5201    1.0552 O.3     1  UNL1       -0.3792
     33 C          21.6317   70.9549   -0.0898 C.3     1  UNL1        0.1718
     34 C          22.8124   71.9293   -0.1594 C.3     1  UNL1        0.1968
     35 C          20.3110   71.7285   -0.1314 C.3     1  UNL1        0.1723
     36 C          22.6723   72.8673   -1.3648 C.3     1  UNL1        0.2706
     37 C          20.2976   72.6562   -1.3444 C.3     1  UNL1        0.1830
     38 H          20.9184   69.5967    1.1178 H       1  UNL1        0.2105
     39 H          24.7566   71.8748   -0.3147 H       1  UNL1        0.2106
     40 H          20.8006   73.2746    0.9858 H       1  UNL1        0.2106
     41 O          19.3173   74.6708   -2.0401 O.co2   1  UNL1       -0.5466
     42 O          18.0161   73.2495   -0.8221 O.co2   1  UNL1       -0.5466
     43 C          19.0813   73.5265   -1.3542 C.2     1  UNL1        0.0799
@<TRIPOS>UNITY_ATOM_ATTR
41 1
charge -1
@<TRIPOS>BOND
     1     1     4    1
     2     1    24    1
     3     1     2    1
     4     1     3    2
     5    25    28    1
     6    25    24    1
     7    25    26    1
     8    25    27    2
     9     6    11    1
    10     6    12    1
    11    29    36    1
    12    29    37    1
    13     7     9    1
    14     7    13    1
    15     8    10    1
    16     8    14    1
    17     4     5    1
    18    28    36    1
    19    30    33    1
    20    30    38    1
    21    31    34    1
    22    31    39    1
    23    32    35    1
    24    32    40    1
    25    41    43   ar
    26    15    19    2
    27    42    43   ar
    28    16    22    2
    29    17    12    1
    30    17    19   ar
    31    17    20   ar
    32    18    19   ar
    33    18    22   ar
    34    18    23    1
    35     9    10    1
    36     9    11    1
    37    10    12    1
    38    11     5    1
    39    33    34    1
    40    33    35    1
    41    34    36    1
    42    35    37    1
    43    37    43    1
    44    20    21   ar
    45    21    22   ar
@<TRIPOS>MOLECULE
UDP-glaA
 43 45 0 0 0
SMALL
GASTEIGER

@<TRIPOS>ATOM
      1 P          22.4851   73.0750   -4.3248 P.3     1  UNL1        0.2189
      2 O          23.4489   71.7777   -4.2526 O.3     1  UNL1       -0.4371
      3 O          23.1039   74.2891   -4.9536 O.2     1  UNL1       -0.5170
      4 O          21.9644   73.2588   -2.8048 O.3     1  UNL1       -0.3112
      5 C          22.8895   73.0808   -1.7456 C.3     1  UNL1        0.1811
      6 O          23.7224   71.4345   -0.2062 O.3     1  UNL1       -0.3308
      7 O          20.8807   70.5142    0.0565 O.3     1  UNL1       -0.3794
      8 O          21.2331   72.0092    2.3096 O.3     1  UNL1       -0.3779
      9 C          21.3898   71.8373   -0.1105 C.3     1  UNL1        0.1713
     10 C          22.0178   72.3248    1.1781 C.3     1  UNL1        0.1895
     11 C          22.5918   71.7639   -1.0430 C.3     1  UNL1        0.1764
     12 C          23.3529   71.5999    1.1728 C.3     1  UNL1        0.2383
     13 H          20.5245   70.2302   -0.8026 H       1  UNL1        0.2105
     14 H          20.3604   72.4201    2.1843 H       1  UNL1        0.2106
     15 O          25.7539   70.4737    2.1435 O.2     1  UNL1       -0.2464
     16 O          27.2266   74.5366    3.7442 O.2     1  UNL1       -0.2670
     17 N          24.3814   72.3400    1.8464 N.ar    1  UNL1       -0.2551
     18 N          26.4855   72.4975    2.9404 N.ar    1  UNL1       -0.2743
     19 C          25.5486   71.6793    2.2955 C.ar    1  UNL1        0.3323
     20 C          24.2279   73.7059    2.0565 C.ar    1  UNL1        0.0869
     21 C          25.1305   74.4724    2.6727 C.ar    1  UNL1        0.0795
     22 C          26.3772   73.8599    3.1730 C.ar    1  UNL1        0.2626
     23 H          27.3323   72.0438    3.2723 H       1  UNL1        0.1734
     24 O          21.1769   72.5124   -5.0912 O.3     1  UNL1       -0.2703
     25 P          20.9062   72.2309   -6.6596 P.3     1  UNL1        0.2208
     26 O          21.5759   70.7779   -6.8969 O.3     1  UNL1       -0.4371
     27 O          21.4170   73.3061   -7.5756 O.2     1  UNL1       -0.5170
     28 O          19.3170   71.9694   -6.7598 O.3     1  UNL1       -0.2858
     29 O          18.2312   70.0597   -5.8801 O.3     1  UNL1       -0.3226
     30 O          15.5721   71.2931   -8.8275 O.3     1  UNL1       -0.3794
     31 O          18.4483   71.3540   -9.3072 O.3     1  UNL1       -0.3775
     32 O          15.5828   69.4289   -6.7892 O.3     1  UNL1       -0.3792
     33 C          16.5470   71.4026   -7.7941 C.3     1  UNL1        0.1718
     34 C          17.8414   70.6914   -8.2029 C.3     1  UNL1        0.1968
     35 C          15.9858   70.7748   -6.5153 C.3     1  UNL1        0.1723
     36 C          18.8337   70.6551   -7.0340 C.3     1  UNL1        0.2706
     37 C          17.0666   70.7543   -5.4366 C.3     1  UNL1        0.1830
     38 H          14.7711   71.7540   -8.5252 H       1  UNL1        0.2105
     39 H          19.2661   70.8753   -9.5233 H       1  UNL1        0.2106
     40 H          16.3801   68.8800   -6.8792 H       1  UNL1        0.2106
     41 O          16.2165   70.9116   -3.2556 O.co2   1  UNL1       -0.5466
     42 O          16.5714   68.8172   -4.0830 O.co2   1  UNL1       -0.5466
     43 C          16.6032   70.0325   -4.2113 C.2     1  UNL1        0.0799
@<TRIPOS>UNITY_ATOM_ATTR
41 1
charge -1
@<TRIPOS>BOND
     1     1     4    1
     2     1    24    1
     3     1     2    1
     4     1     3    2
     5    25    28    1
     6    25    24    1
     7    25    26    1
     8    25    27    2
     9     6    11    1
    10     6    12    1
    11    29    36    1
    12    29    37    1
    13     7     9    1
    14     7    13    1
    15     8    10    1
    16     8    14    1
    17     4     5    1
    18    28    36    1
    19    30    33    1
    20    30    38    1
    21    31    34    1
    22    31    39    1
    23    32    35    1
    24    32    40    1
    25    41    43   ar
    26    15    19    2
    27    42    43   ar
    28    16    22    2
    29    17    12    1
    30    17    19   ar
    31    17    20   ar
    32    18    19   ar
    33    18    22   ar
    34    18    23    1
    35     9    10    1
    36     9    11    1
    37    10    12    1
    38    11     5    1
    39    33    34    1
    40    33    35    1
    41    34    36    1
    42    35    37    1
    43    37    43    1
    44    20    21   ar
    45    21    22   ar
