@<TRIPOS>MOLECULE
UD2
 46 48 0 0 0
SMALL
GASTEIGER

@<TRIPOS>ATOM
      1 P          20.5707   71.0766   -2.8995 P.3     1  UNL1        0.2189
      2 O          20.7717   69.7591   -3.8023 O.3     1  UNL1       -0.4371
      3 O          21.6507   72.0448   -3.1912 O.2     1  UNL1       -0.5170
      4 O          19.1449   71.7455   -3.2364 O.3     1  UNL1       -0.3112
      5 C          17.9438   71.4069   -2.5405 C.3     1  UNL1        0.1811
      6 C          16.6848   70.5549   -5.8002 C.3     1  UNL1        0.2383
      7 C          16.8560   69.1931   -5.0804 C.3     1  UNL1        0.1895
      8 O          15.8910   68.2465   -5.5434 O.3     1  UNL1       -0.3779
      9 C          16.5937   69.5713   -3.6020 C.3     1  UNL1        0.1713
     10 C          16.8399   71.0913   -3.5528 C.3     1  UNL1        0.1764
     11 O          17.2503   71.5010   -4.8671 O.3     1  UNL1       -0.3308
     12 O          15.2442   69.2709   -3.2421 O.3     1  UNL1       -0.3794
     13 H          15.9579   67.3785   -5.1230 H       1  UNL1        0.2106
     14 H          15.0170   68.3339   -3.3122 H       1  UNL1        0.2105
     15 N          17.4272   70.5681   -7.0626 N.ar    1  UNL1       -0.2551
     16 C          16.7581   70.5890   -8.2290 C.ar    1  UNL1        0.3323
     17 N          17.4146   70.6013   -9.4042 N.ar    1  UNL1       -0.2743
     18 C          18.7629   70.5946   -9.4285 C.ar    1  UNL1        0.2626
     19 C          19.4800   70.5736   -8.2081 C.ar    1  UNL1        0.0795
     20 C          18.7961   70.5660   -7.0447 C.ar    1  UNL1        0.0869
     21 O          15.5422   70.5955   -8.2222 O.2     1  UNL1       -0.2464
     22 O          19.3583   70.6061  -10.4915 O.2     1  UNL1       -0.2670
     23 H          16.9166   70.6151  -10.2361 H       1  UNL1        0.1734
     24 O          20.6182   70.6723   -1.3414 O.3     1  UNL1       -0.2703
     25 P          21.5317   71.1273   -0.0959 P.3     1  UNL1        0.2208
     26 O          21.6055   69.9311    0.9801 O.3     1  UNL1       -0.4371
     27 O          22.8952   71.4449   -0.5737 O.2     1  UNL1       -0.5170
     28 O          20.8871   72.4314    0.5943 O.3     1  UNL1       -0.2865
     29 C          21.6557   73.5787    0.9604 C.3     1  UNL1        0.2611
     30 C          22.1650   73.4164    2.3946 C.3     1  UNL1        0.1582
     31 C          20.9675   73.3357    3.3465 C.3     1  UNL1        0.1625
     32 C          20.1071   74.5905    3.1746 C.3     1  UNL1        0.1686
     33 C          19.6769   74.7075    1.7099 C.3     1  UNL1        0.1760
     34 O          21.4345   73.2578    4.6952 O.3     1  UNL1       -0.3801
     35 O          20.8651   75.7438    3.5439 O.3     1  UNL1       -0.3794
     36 O          20.8368   74.7469    0.8762 O.3     1  UNL1       -0.3263
     37 H          20.7278   73.2033    5.3531 H       1  UNL1        0.2105
     38 H          20.3812   76.5772    3.4588 H       1  UNL1        0.2105
     39 C          24.3002   72.2427    2.4272 C.2     1  UNL1        0.2231
     40 C          25.1137   70.9794    2.5326 C.3     1  UNL1        0.0946
     41 N          22.9556   72.1871    2.4970 N.am    1  UNL1       -0.2994
     42 O          24.8555   73.3114    2.2794 O.2     1  UNL1       -0.2751
     43 H          22.5112   71.3328    2.6142 H       1  UNL1        0.1496
     44 C          18.8664   75.9907    1.5177 C.3     1  UNL1        0.1693
     45 O          17.6406   75.8943    2.2461 O.3     1  UNL1       -0.3794
     46 H          17.0747   76.6746    2.1696 H       1  UNL1        0.2105
@<TRIPOS>BOND
     1    29    30    1
     2    30    41    1
     3    30    31    1
     4    31    34    1
     5    31    32    1
     6    32    35    1
     7    32    33    1
     8    33    36    1
     9    33    44    1
    10    39    40    1
    11    39    42    2
    12    39    41   am
    13    41    43    1
    14    29    28    1
    15    34    37    1
    16    35    38    1
    17    29    36    1
    18    44    45    1
    19    45    46    1
    20    15     6    1
    21    15    16   ar
    22    16    21    2
    23    16    17   ar
    24    17    23    1
    25    17    18   ar
    26    18    19   ar
    27    19    20   ar
    28    15    20   ar
    29    18    22    2
    30     6     7    1
    31     6    11    1
    32     7     9    1
    33     7     8    1
    34     8    13    1
    35     9    10    1
    36     9    12    1
    37    10     5    1
    38    10    11    1
    39    12    14    1
    40     5     4    1
    41     4     1    1
    42     1     2    1
    43     1    24    1
    44     1     3    2
    45    24    25    1
    46    28    25    1
    47    25    26    1
    48    25    27    2
@<TRIPOS>MOLECULE
UD2
 46 48 0 0 0
SMALL
GASTEIGER

@<TRIPOS>ATOM
      1 P          20.3437   70.6290   -3.5648 P.3     1  UNL1        0.2189
      2 O          20.4435   69.3382   -4.5215 O.3     1  UNL1       -0.4371
      3 O          20.2668   71.8527   -4.3928 O.2     1  UNL1       -0.5170
      4 O          19.0240   70.5170   -2.6486 O.3     1  UNL1       -0.3112
      5 C          18.0122   71.5253   -2.6167 C.3     1  UNL1        0.1811
      6 C          16.7052   70.5413   -5.8198 C.3     1  UNL1        0.2383
      7 C          16.9136   69.2079   -5.0577 C.3     1  UNL1        0.1895
      8 O          15.9562   68.2303   -5.4689 O.3     1  UNL1       -0.3779
      9 C          16.6735   69.6323   -3.5881 C.3     1  UNL1        0.1713
     10 C          16.8945   71.1570   -3.5955 C.3     1  UNL1        0.1764
     11 O          17.2723   71.5280   -4.9309 O.3     1  UNL1       -0.3308
     12 O          15.3366   69.3222   -3.1914 O.3     1  UNL1       -0.3794
     13 H          16.0461   67.3784   -5.0206 H       1  UNL1        0.2106
     14 H          15.1241   68.3798   -3.2250 H       1  UNL1        0.2105
     15 N          17.4227   70.5233   -7.0965 N.ar    1  UNL1       -0.2551
     16 C          16.7313   70.5405   -8.2499 C.ar    1  UNL1        0.3323
     17 N          17.3646   70.5245   -9.4377 N.ar    1  UNL1       -0.2743
     18 C          18.7119   70.4925   -9.4881 C.ar    1  UNL1        0.2626
     19 C          19.4524   70.4751   -8.2816 C.ar    1  UNL1        0.0795
     20 C          18.7914   70.4961   -7.1051 C.ar    1  UNL1        0.0869
     21 O          15.5161   70.5695   -8.2196 O.2     1  UNL1       -0.2464
     22 O          19.2863   70.4784  -10.5624 O.2     1  UNL1       -0.2670
     23 H          16.8508   70.5360  -10.2598 H       1  UNL1        0.1734
     24 O          21.6468   70.7000   -2.6212 O.3     1  UNL1       -0.2703
     25 P          22.9567   71.6361   -2.5928 P.3     1  UNL1        0.2208
     26 O          24.2503   70.7600   -2.9838 O.3     1  UNL1       -0.4371
     27 O          22.7963   72.7391   -3.5653 O.2     1  UNL1       -0.5170
     28 O          23.1481   72.2464   -1.1151 O.3     1  UNL1       -0.2865
     29 C          22.5320   71.6845    0.0450 C.3     1  UNL1        0.2611
     30 C          21.8534   72.7943    0.8517 C.3     1  UNL1        0.1582
     31 C          22.9153   73.7913    1.3258 C.3     1  UNL1        0.1625
     32 C          23.9733   73.0441    2.1423 C.3     1  UNL1        0.1686
     33 C          24.5703   71.9245    1.2856 C.3     1  UNL1        0.1760
     34 O          22.3006   74.7912    2.1417 O.3     1  UNL1       -0.3801
     35 O          23.3681   72.4829    3.3085 O.3     1  UNL1       -0.3794
     36 O          23.5263   71.0503    0.8521 O.3     1  UNL1       -0.3263
     37 H          22.9159   75.4577    2.4767 H       1  UNL1        0.2105
     38 H          23.9817   71.9931    3.8739 H       1  UNL1        0.2105
     39 C          19.6976   73.8828    0.5273 C.2     1  UNL1        0.2231
     40 C          18.6918   74.5932   -0.3400 C.3     1  UNL1        0.0946
     41 N          20.8755   73.4850    0.0073 N.am    1  UNL1       -0.2994
     42 O          19.4477   73.6683    1.6951 O.2     1  UNL1       -0.2751
     43 H          21.0753   73.6554   -0.9265 H       1  UNL1        0.1496
     44 C          25.5859   71.1352    2.1139 C.3     1  UNL1        0.1693
     45 O          24.9332   70.0296    2.7417 O.3     1  UNL1       -0.3794
     46 H          25.5181   69.4836    3.2847 H       1  UNL1        0.2105
@<TRIPOS>BOND
     1    29    30    1
     2    30    41    1
     3    30    31    1
     4    31    34    1
     5    31    32    1
     6    32    35    1
     7    32    33    1
     8    33    36    1
     9    33    44    1
    10    39    40    1
    11    39    42    2
    12    39    41   am
    13    41    43    1
    14    29    28    1
    15    34    37    1
    16    35    38    1
    17    29    36    1
    18    44    45    1
    19    45    46    1
    20    15     6    1
    21    15    16   ar
    22    16    21    2
    23    16    17   ar
    24    17    23    1
    25    17    18   ar
    26    18    19   ar
    27    19    20   ar
    28    15    20   ar
    29    18    22    2
    30     6     7    1
    31     6    11    1
    32     7     9    1
    33     7     8    1
    34     8    13    1
    35     9    10    1
    36     9    12    1
    37    10     5    1
    38    10    11    1
    39    12    14    1
    40     5     4    1
    41     4     1    1
    42     1     2    1
    43     1    24    1
    44     1     3    2
    45    24    25    1
    46    28    25    1
    47    25    26    1
    48    25    27    2
@<TRIPOS>MOLECULE
UD2
 46 48 0 0 0
SMALL
GASTEIGER

@<TRIPOS>ATOM
      1 P          20.7686   72.5328   -3.9750 P.3     1  UNL1        0.2189
      2 O          21.5332   72.1548   -5.3403 O.3     1  UNL1       -0.4371
      3 O          19.8852   73.6962   -4.2095 O.2     1  UNL1       -0.5170
      4 O          19.8848   71.2770   -3.4898 O.3     1  UNL1       -0.3112
      5 C          18.6814   71.4197   -2.7329 C.3     1  UNL1        0.1811
      6 C          17.0927   70.5436   -5.8385 C.3     1  UNL1        0.2383
      7 C          17.2937   69.1913   -5.1086 C.3     1  UNL1        0.1895
      8 O          16.2625   68.2655   -5.4568 O.3     1  UNL1       -0.3779
      9 C          17.1848   69.6055   -3.6206 C.3     1  UNL1        0.1713
     10 C          17.4773   71.1181   -3.6284 C.3     1  UNL1        0.1764
     11 O          17.7713   71.4900   -4.9844 O.3     1  UNL1       -0.3308
     12 O          15.8680   69.3527   -3.1275 O.3     1  UNL1       -0.3794
     13 H          16.3449   67.4041   -5.0257 H       1  UNL1        0.2106
     14 H          15.6089   68.4219   -3.1550 H       1  UNL1        0.2105
     15 N          17.7110   70.5102   -7.1658 N.ar    1  UNL1       -0.2551
     16 C          16.9333   70.4947   -8.2630 C.ar    1  UNL1        0.3323
     17 N          17.4744   70.4638   -9.4953 N.ar    1  UNL1       -0.2743
     18 C          18.8142   70.4498   -9.6481 C.ar    1  UNL1        0.2626
     19 C          19.6448   70.4669   -8.5018 C.ar    1  UNL1        0.0795
     20 C          19.0752   70.5021   -7.2787 C.ar    1  UNL1        0.0869
     21 O          15.7237   70.5073   -8.1403 O.2     1  UNL1       -0.2464
     22 O          19.3052   70.4222  -10.7628 O.2     1  UNL1       -0.2670
     23 H          16.8992   70.4518  -10.2757 H       1  UNL1        0.1734
     24 O          21.8489   72.8991   -2.8383 O.3     1  UNL1       -0.2703
     25 P          22.9944   72.0643   -2.0743 P.3     1  UNL1        0.2208
     26 O          22.3117   70.9136   -1.1779 O.3     1  UNL1       -0.4371
     27 O          23.8984   71.4439   -3.0674 O.2     1  UNL1       -0.5170
     28 O          23.8377   73.0549   -1.1254 O.3     1  UNL1       -0.2865
     29 C          23.3627   73.5095    0.1430 C.3     1  UNL1        0.2611
     30 C          23.1860   72.3134    1.0814 C.3     1  UNL1        0.1582
     31 C          22.1282   71.3707    0.4993 C.3     1  UNL1        0.1625
     32 C          20.8241   72.1470    0.2966 C.3     1  UNL1        0.1686
     33 C          21.0920   73.3499   -0.6118 C.3     1  UNL1        0.1760
     34 O          21.9036   70.2879    1.4052 O.3     1  UNL1       -0.3801
     35 O          20.3374   72.6014    1.5607 O.3     1  UNL1       -0.3794
     36 O          22.1065   74.1693   -0.0278 O.3     1  UNL1       -0.3263
     37 H          21.2443   69.6500    1.0993 H       1  UNL1        0.2105
     38 H          19.5118   73.1031    1.5077 H       1  UNL1        0.2105
     39 C          25.2762   71.8623    2.2500 C.2     1  UNL1        0.2231
     40 C          26.5853   71.1296    2.3835 C.3     1  UNL1        0.0946
     41 N          24.4594   71.6004    1.2105 N.am    1  UNL1       -0.2994
     42 O          24.9562   72.6890    3.0785 O.2     1  UNL1       -0.2751
     43 H          24.7153   70.9403    0.5474 H       1  UNL1        0.1496
     44 C          19.8069   74.1645   -0.7711 C.3     1  UNL1        0.1693
     45 O          20.0394   75.2518   -1.6690 O.3     1  UNL1       -0.3794
     46 H          19.2657   75.8124   -1.8174 H       1  UNL1        0.2105
@<TRIPOS>BOND
     1    29    30    1
     2    30    41    1
     3    30    31    1
     4    31    34    1
     5    31    32    1
     6    32    35    1
     7    32    33    1
     8    33    36    1
     9    33    44    1
    10    39    40    1
    11    39    42    2
    12    39    41   am
    13    41    43    1
    14    29    28    1
    15    34    37    1
    16    35    38    1
    17    29    36    1
    18    44    45    1
    19    45    46    1
    20    15     6    1
    21    15    16   ar
    22    16    21    2
    23    16    17   ar
    24    17    23    1
    25    17    18   ar
    26    18    19   ar
    27    19    20   ar
    28    15    20   ar
    29    18    22    2
    30     6     7    1
    31     6    11    1
    32     7     9    1
    33     7     8    1
    34     8    13    1
    35     9    10    1
    36     9    12    1
    37    10     5    1
    38    10    11    1
    39    12    14    1
    40     5     4    1
    41     4     1    1
    42     1     2    1
    43     1    24    1
    44     1     3    2
    45    24    25    1
    46    28    25    1
    47    25    26    1
    48    25    27    2
@<TRIPOS>MOLECULE
UD2
 46 48 0 0 0
SMALL
GASTEIGER

@<TRIPOS>ATOM
      1 P          21.6960   72.8479   -6.3234 P.3     1  UNL1        0.2189
      2 O          23.1992   72.8264   -6.8990 O.3     1  UNL1       -0.4371
      3 O          20.9748   74.0187   -6.8694 O.2     1  UNL1       -0.5170
      4 O          20.9351   71.4973   -6.7598 O.3     1  UNL1       -0.3112
      5 C          20.5844   71.2057   -8.1139 C.3     1  UNL1        0.1811
      6 C          17.3949   70.0623   -6.9070 C.3     1  UNL1        0.2383
      7 C          17.0473   71.1231   -7.9822 C.3     1  UNL1        0.1895
      8 O          15.8089   70.8122   -8.6238 O.3     1  UNL1       -0.3779
      9 C          18.2313   70.9849   -8.9703 C.3     1  UNL1        0.1713
     10 C          19.3404   70.3142   -8.1375 C.3     1  UNL1        0.1764
     11 O          18.8329   70.1479   -6.8040 O.3     1  UNL1       -0.3308
     12 O          17.8649   70.1569  -10.0753 O.3     1  UNL1       -0.3794
     13 H          15.5479   71.4473   -9.3043 H       1  UNL1        0.2106
     14 H          17.1306   70.5026  -10.6004 H       1  UNL1        0.2105
     15 N          16.7648   70.3982   -5.6283 N.ar    1  UNL1       -0.2551
     16 C          16.3917   69.4145   -4.7905 C.ar    1  UNL1        0.3323
     17 N          15.8102   69.6941   -3.6090 N.ar    1  UNL1       -0.2743
     18 C          15.5937   70.9744   -3.2452 C.ar    1  UNL1        0.2626
     19 C          15.9824   72.0199   -4.1170 C.ar    1  UNL1        0.0795
     20 C          16.5671   71.7107   -5.2934 C.ar    1  UNL1        0.0869
     21 O          16.5809   68.2554   -5.1054 O.2     1  UNL1       -0.2464
     22 O          15.0679   71.2288   -2.1760 O.2     1  UNL1       -0.2670
     23 H          15.5462   68.9727   -3.0173 H       1  UNL1        0.1734
     24 O          21.7377   72.9443   -4.7165 O.3     1  UNL1       -0.2703
     25 P          22.8536   72.6091   -3.6050 P.3     1  UNL1        0.2208
     26 O          22.5049   71.2024   -2.9025 O.3     1  UNL1       -0.4371
     27 O          24.1820   72.5218   -4.2500 O.2     1  UNL1       -0.5170
     28 O          22.8714   73.7744   -2.4940 O.3     1  UNL1       -0.2865
     29 C          21.8262   73.9530   -1.5364 C.3     1  UNL1        0.2611
     30 C          21.4756   72.6037   -0.9047 C.3     1  UNL1        0.1582
     31 C          20.9532   71.6606   -1.9929 C.3     1  UNL1        0.1625
     32 C          19.7492   72.3097   -2.6810 C.3     1  UNL1        0.1686
     33 C          20.1666   73.6707   -3.2444 C.3     1  UNL1        0.1760
     34 O          20.5543   70.4225   -1.4001 O.3     1  UNL1       -0.3801
     35 O          18.6956   72.4876   -1.7326 O.3     1  UNL1       -0.3794
     36 O          20.6714   74.4879   -2.1865 O.3     1  UNL1       -0.3263
     37 H          20.2130   69.7759   -2.0330 H       1  UNL1        0.2105
     38 H          17.8993   72.8957   -2.1003 H       1  UNL1        0.2105
     39 C          22.5705   71.3272    0.8587 C.2     1  UNL1        0.2231
     40 C          23.8009   70.7324    1.4919 C.3     1  UNL1        0.0946
     41 N          22.6729   72.0256   -0.2893 N.am    1  UNL1       -0.2994
     42 O          21.4861   71.1778    1.3822 O.2     1  UNL1       -0.2751
     43 H          23.5398   72.1462   -0.7076 H       1  UNL1        0.1496
     44 C          18.9541   74.3522   -3.8816 C.3     1  UNL1        0.1693
     45 O          19.3973   75.3224   -4.8327 O.3     1  UNL1       -0.3794
     46 H          18.6799   75.7948   -5.2768 H       1  UNL1        0.2105
@<TRIPOS>BOND
     1    29    30    1
     2    30    41    1
     3    30    31    1
     4    31    34    1
     5    31    32    1
     6    32    35    1
     7    32    33    1
     8    33    36    1
     9    33    44    1
    10    39    40    1
    11    39    42    2
    12    39    41   am
    13    41    43    1
    14    29    28    1
    15    34    37    1
    16    35    38    1
    17    29    36    1
    18    44    45    1
    19    45    46    1
    20    15     6    1
    21    15    16   ar
    22    16    21    2
    23    16    17   ar
    24    17    23    1
    25    17    18   ar
    26    18    19   ar
    27    19    20   ar
    28    15    20   ar
    29    18    22    2
    30     6     7    1
    31     6    11    1
    32     7     9    1
    33     7     8    1
    34     8    13    1
    35     9    10    1
    36     9    12    1
    37    10     5    1
    38    10    11    1
    39    12    14    1
    40     5     4    1
    41     4     1    1
    42     1     2    1
    43     1    24    1
    44     1     3    2
    45    24    25    1
    46    28    25    1
    47    25    26    1
    48    25    27    2
@<TRIPOS>MOLECULE
UD2
 46 48 0 0 0
SMALL
GASTEIGER

@<TRIPOS>ATOM
      1 P          16.1693   70.5163   -2.5872 P.3     1  UNL1        0.2189
      2 O          16.5426   69.0810   -3.2133 O.3     1  UNL1       -0.4371
      3 O          15.6067   71.3851   -3.6443 O.2     1  UNL1       -0.5170
      4 O          15.0816   70.3239   -1.4152 O.3     1  UNL1       -0.3112
      5 C          14.8699   69.0782   -0.7483 C.3     1  UNL1        0.1811
      6 C          12.0870   67.9557    1.2346 C.3     1  UNL1        0.2383
      7 C          12.3705   69.3933    1.7395 C.3     1  UNL1        0.1895
      8 O          11.1690   70.0220    2.1898 O.3     1  UNL1       -0.3779
      9 C          12.9116   70.0851    0.4644 C.3     1  UNL1        0.1713
     10 C          13.3821   68.9190   -0.4258 C.3     1  UNL1        0.1764
     11 O          13.1690   67.7048    0.3116 O.3     1  UNL1       -0.3308
     12 O          11.8725   70.8214   -0.1828 O.3     1  UNL1       -0.3794
     13 H          11.2948   70.9234    2.5160 H       1  UNL1        0.2106
     14 H          11.4983   71.5314    0.3559 H       1  UNL1        0.2105
     15 N          12.1245   67.0020    2.3455 N.ar    1  UNL1       -0.2551
     16 C          13.3087   66.5579    2.8029 C.ar    1  UNL1        0.3323
     17 N          13.3730   65.6811    3.8224 N.ar    1  UNL1       -0.2743
     18 C          12.2422   65.2338    4.4052 C.ar    1  UNL1        0.2626
     19 C          10.9888   65.6937    3.9345 C.ar    1  UNL1        0.0795
     20 C          10.9542   66.5759    2.9137 C.ar    1  UNL1        0.0869
     21 O          14.3365   66.9529    2.2871 O.2     1  UNL1       -0.2464
     22 O          12.2990   64.4405    5.3282 O.2     1  UNL1       -0.2670
     23 H          14.2351   65.3702    4.1390 H       1  UNL1        0.1734
     24 O          17.4957   71.1989   -1.9805 O.3     1  UNL1       -0.2703
     25 P          18.9966   71.4047   -2.5263 P.3     1  UNL1        0.2208
     26 O          19.6492   72.6995   -1.8253 O.3     1  UNL1       -0.4371
     27 O          19.8070   70.2095   -2.2050 O.2     1  UNL1       -0.5170
     28 O          18.9628   71.6176   -4.1220 O.3     1  UNL1       -0.2865
     29 C          19.9640   71.0969   -4.9982 C.3     1  UNL1        0.2611
     30 C          20.6941   72.2537   -5.6850 C.3     1  UNL1        0.1582
     31 C          19.6950   73.0425   -6.5370 C.3     1  UNL1        0.1625
     32 C          19.0363   72.0934   -7.5419 C.3     1  UNL1        0.1686
     33 C          18.3700   70.9426   -6.7833 C.3     1  UNL1        0.1760
     34 O          20.3822   74.0803   -7.2399 O.3     1  UNL1       -0.3801
     35 O          20.0288   71.5713   -8.4271 O.3     1  UNL1       -0.3794
     36 O          19.3475   70.2699   -5.9872 O.3     1  UNL1       -0.3263
     37 H          19.8091   74.6216   -7.8000 H       1  UNL1        0.2105
     38 H          19.6816   70.9602   -9.0919 H       1  UNL1        0.2105
     39 C          22.6140   73.1991   -4.5198 C.2     1  UNL1        0.2231
     40 C          23.2135   74.1060   -3.4774 C.3     1  UNL1        0.0946
     41 N          21.2764   73.1359   -4.6706 N.am    1  UNL1       -0.2994
     42 O          23.3356   72.5246   -5.2246 O.2     1  UNL1       -0.2751
     43 H          20.6991   73.6743   -4.1067 H       1  UNL1        0.1496
     44 C          17.7607   69.9581   -7.7832 C.3     1  UNL1        0.1693
     45 O          16.5250   70.4811   -8.2751 O.3     1  UNL1       -0.3794
     46 H          16.0817   69.9078   -8.9153 H       1  UNL1        0.2105
@<TRIPOS>BOND
     1    29    30    1
     2    30    41    1
     3    30    31    1
     4    31    34    1
     5    31    32    1
     6    32    35    1
     7    32    33    1
     8    33    36    1
     9    33    44    1
    10    39    40    1
    11    39    42    2
    12    39    41   am
    13    41    43    1
    14    29    28    1
    15    34    37    1
    16    35    38    1
    17    29    36    1
    18    44    45    1
    19    45    46    1
    20    15     6    1
    21    15    16   ar
    22    16    21    2
    23    16    17   ar
    24    17    23    1
    25    17    18   ar
    26    18    19   ar
    27    19    20   ar
    28    15    20   ar
    29    18    22    2
    30     6     7    1
    31     6    11    1
    32     7     9    1
    33     7     8    1
    34     8    13    1
    35     9    10    1
    36     9    12    1
    37    10     5    1
    38    10    11    1
    39    12    14    1
    40     5     4    1
    41     4     1    1
    42     1     2    1
    43     1    24    1
    44     1     3    2
    45    24    25    1
    46    28    25    1
    47    25    26    1
    48    25    27    2
@<TRIPOS>MOLECULE
UD2
 46 48 0 0 0
SMALL
GASTEIGER

@<TRIPOS>ATOM
      1 P          23.3953   72.0806   -3.2619 P.3     1  UNL1        0.2189
      2 O          24.1904   70.7174   -2.9444 O.3     1  UNL1       -0.4371
      3 O          24.0007   72.7429   -4.4383 O.2     1  UNL1       -0.5170
      4 O          21.8517   71.7417   -3.5720 O.3     1  UNL1       -0.3112
      5 C          21.0283   70.9852   -2.6825 C.3     1  UNL1        0.1811
      6 C          18.3528   70.7605   -5.0757 C.3     1  UNL1        0.2383
      7 C          18.3831   69.3693   -4.3933 C.3     1  UNL1        0.1895
      8 O          17.0766   68.7920   -4.3538 O.3     1  UNL1       -0.3779
      9 C          18.8766   69.7171   -2.9675 C.3     1  UNL1        0.1713
     10 C          19.5683   71.0839   -3.1314 C.3     1  UNL1        0.1764
     11 O          19.5076   71.4298   -4.5243 O.3     1  UNL1       -0.3308
     12 O          17.7713   69.8200   -2.0683 O.3     1  UNL1       -0.3794
     13 H          17.0438   67.9205   -3.9365 H       1  UNL1        0.2106
     14 H          17.2637   69.0029   -1.9726 H       1  UNL1        0.2105
     15 N          18.4793   70.6252   -6.5286 N.ar    1  UNL1       -0.2551
     16 C          17.3743   70.4994   -7.2849 C.ar    1  UNL1        0.3323
     17 N          17.4608   70.3733   -8.6223 N.ar    1  UNL1       -0.2743
     18 C          18.6659   70.3730   -9.2275 C.ar    1  UNL1        0.2626
     19 C          19.8373   70.5057   -8.4437 C.ar    1  UNL1        0.0795
     20 C          19.7208   70.6348   -7.1053 C.ar    1  UNL1        0.0869
     21 O          16.2810   70.4982   -6.7527 O.2     1  UNL1       -0.2464
     22 O          18.7456   70.2594  -10.4380 O.2     1  UNL1       -0.2670
     23 H          16.6541   70.2823   -9.1526 H       1  UNL1        0.1734
     24 O          23.4831   73.0625   -1.9885 O.3     1  UNL1       -0.2703
     25 P          23.0188   74.5795   -1.7125 P.3     1  UNL1        0.2208
     26 O          23.8087   75.5710   -2.7058 O.3     1  UNL1       -0.4371
     27 O          21.5637   74.7012   -1.9494 O.2     1  UNL1       -0.5170
     28 O          23.3494   74.9725   -0.1865 O.3     1  UNL1       -0.2865
     29 C          22.3428   75.1047    0.8189 C.3     1  UNL1        0.2611
     30 C          22.9496   75.7473    2.0685 C.3     1  UNL1        0.1582
     31 C          24.0439   74.8303    2.6236 C.3     1  UNL1        0.1625
     32 C          23.4419   73.4526    2.9134 C.3     1  UNL1        0.1686
     33 C          22.8160   72.8983    1.6309 C.3     1  UNL1        0.1760
     34 O          24.5657   75.3874    3.8321 O.3     1  UNL1       -0.3801
     35 O          22.4375   73.5729    3.9224 O.3     1  UNL1       -0.3794
     36 O          21.8289   73.8131    1.1505 O.3     1  UNL1       -0.3263
     37 H          25.2650   74.8578    4.2390 H       1  UNL1        0.2105
     38 H          22.0117   72.7362    4.1562 H       1  UNL1        0.2105
     39 C          23.3742   78.0992    2.5440 C.2     1  UNL1        0.2231
     40 C          23.9711   79.4345    2.1845 C.3     1  UNL1        0.0946
     41 N          23.5303   77.0460    1.7179 N.am    1  UNL1       -0.2994
     42 O          22.7523   77.9711    3.5780 O.2     1  UNL1       -0.2751
     43 H          24.0266   77.1482    0.8907 H       1  UNL1        0.1496
     44 C          22.1599   71.5482    1.9261 C.3     1  UNL1        0.1693
     45 O          20.8245   71.7579    2.3899 O.3     1  UNL1       -0.3794
     46 H          20.3470   70.9431    2.5971 H       1  UNL1        0.2105
@<TRIPOS>BOND
     1    29    30    1
     2    30    41    1
     3    30    31    1
     4    31    34    1
     5    31    32    1
     6    32    35    1
     7    32    33    1
     8    33    36    1
     9    33    44    1
    10    39    40    1
    11    39    42    2
    12    39    41   am
    13    41    43    1
    14    29    28    1
    15    34    37    1
    16    35    38    1
    17    29    36    1
    18    44    45    1
    19    45    46    1
    20    15     6    1
    21    15    16   ar
    22    16    21    2
    23    16    17   ar
    24    17    23    1
    25    17    18   ar
    26    18    19   ar
    27    19    20   ar
    28    15    20   ar
    29    18    22    2
    30     6     7    1
    31     6    11    1
    32     7     9    1
    33     7     8    1
    34     8    13    1
    35     9    10    1
    36     9    12    1
    37    10     5    1
    38    10    11    1
    39    12    14    1
    40     5     4    1
    41     4     1    1
    42     1     2    1
    43     1    24    1
    44     1     3    2
    45    24    25    1
    46    28    25    1
    47    25    26    1
    48    25    27    2
@<TRIPOS>MOLECULE
UD2
 46 48 0 0 0
SMALL
GASTEIGER

@<TRIPOS>ATOM
      1 P          16.1237   70.1913   -2.1054 P.3     1  UNL1        0.2189
      2 O          16.7724   68.7190   -2.0510 O.3     1  UNL1       -0.4371
      3 O          15.6396   70.4674   -3.4759 O.2     1  UNL1       -0.5170
      4 O          14.8896   70.2722   -1.0738 O.3     1  UNL1       -0.3112
      5 C          14.3900   69.1343   -0.3688 C.3     1  UNL1        0.1811
      6 C          10.9038   68.2511   -0.4201 C.3     1  UNL1        0.2383
      7 C          11.4385   67.6505    0.9049 C.3     1  UNL1        0.1895
      8 O          10.4168   67.6278    1.9036 O.3     1  UNL1       -0.3779
      9 C          12.5602   68.6479    1.2848 C.3     1  UNL1        0.1713
     10 C          12.9094   69.3458   -0.0436 C.3     1  UNL1        0.1764
     11 O          12.0945   68.7512   -1.0663 O.3     1  UNL1       -0.3308
     12 O          12.0813   69.5977    2.2385 O.3     1  UNL1       -0.3794
     13 H          10.7027   67.2600    2.7507 H       1  UNL1        0.2106
     14 H          11.7917   69.2060    3.0734 H       1  UNL1        0.2105
     15 N          10.2694   67.2145   -1.2373 N.ar    1  UNL1       -0.2551
     16 C          10.6710   65.9361   -1.1218 C.ar    1  UNL1        0.3323
     17 N          10.1059   64.9629   -1.8605 N.ar    1  UNL1       -0.2743
     18 C           9.1202   65.2581   -2.7322 C.ar    1  UNL1        0.2626
     19 C           8.6868   66.5994   -2.8632 C.ar    1  UNL1        0.0795
     20 C           9.2682   67.5542   -2.1070 C.ar    1  UNL1        0.0869
     21 O          11.5587   65.6553   -0.3397 O.2     1  UNL1       -0.2464
     22 O           8.6075   64.3782   -3.4011 O.2     1  UNL1       -0.2670
     23 H          10.4083   64.0465   -1.7657 H       1  UNL1        0.1734
     24 O          17.2351   71.2832   -1.6982 O.3     1  UNL1       -0.2703
     25 P          18.7711   71.5245   -2.1169 P.3     1  UNL1        0.2208
     26 O          19.3385   72.8218   -1.3497 O.3     1  UNL1       -0.4371
     27 O          19.5761   70.3406   -1.7444 O.2     1  UNL1       -0.5170
     28 O          18.8634   71.7580   -3.7074 O.3     1  UNL1       -0.2865
     29 C          19.6275   70.9179   -4.5745 C.3     1  UNL1        0.2611
     30 C          20.5067   71.7833   -5.4805 C.3     1  UNL1        0.1582
     31 C          19.6107   72.6640   -6.3568 C.3     1  UNL1        0.1625
     32 C          18.6579   71.7697   -7.1550 C.3     1  UNL1        0.1686
     33 C          17.8497   70.9047   -6.1841 C.3     1  UNL1        0.1760
     34 O          20.4211   73.4222   -7.2577 O.3     1  UNL1       -0.3801
     35 O          19.4123   70.9292   -8.0300 O.3     1  UNL1       -0.3794
     36 O          18.7434   70.1340   -5.3783 O.3     1  UNL1       -0.3263
     37 H          19.9182   74.0041   -7.8438 H       1  UNL1        0.2105
     38 H          18.8715   70.3337   -8.5675 H       1  UNL1        0.2105
     39 C          22.6475   72.8564   -5.0298 C.2     1  UNL1        0.2231
     40 C          23.5378   73.7285   -4.1839 C.3     1  UNL1        0.0946
     41 N          21.3721   72.6316   -4.6570 N.am    1  UNL1       -0.2994
     42 O          23.0784   72.3556   -6.0475 O.2     1  UNL1       -0.2751
     43 H          21.0275   73.0309   -3.8429 H       1  UNL1        0.1496
     44 C          16.9379   69.9656   -6.9760 C.3     1  UNL1        0.1693
     45 O          16.0215   69.3266   -6.0848 O.3     1  UNL1       -0.3794
     46 H          15.4112   68.7152   -6.5192 H       1  UNL1        0.2105
@<TRIPOS>BOND
     1    29    30    1
     2    30    41    1
     3    30    31    1
     4    31    34    1
     5    31    32    1
     6    32    35    1
     7    32    33    1
     8    33    36    1
     9    33    44    1
    10    39    40    1
    11    39    42    2
    12    39    41   am
    13    41    43    1
    14    29    28    1
    15    34    37    1
    16    35    38    1
    17    29    36    1
    18    44    45    1
    19    45    46    1
    20    15     6    1
    21    15    16   ar
    22    16    21    2
    23    16    17   ar
    24    17    23    1
    25    17    18   ar
    26    18    19   ar
    27    19    20   ar
    28    15    20   ar
    29    18    22    2
    30     6     7    1
    31     6    11    1
    32     7     9    1
    33     7     8    1
    34     8    13    1
    35     9    10    1
    36     9    12    1
    37    10     5    1
    38    10    11    1
    39    12    14    1
    40     5     4    1
    41     4     1    1
    42     1     2    1
    43     1    24    1
    44     1     3    2
    45    24    25    1
    46    28    25    1
    47    25    26    1
    48    25    27    2
@<TRIPOS>MOLECULE
UD2
 46 48 0 0 0
SMALL
GASTEIGER

@<TRIPOS>ATOM
      1 P          22.0236   73.0137   -6.4983 P.3     1  UNL1        0.2189
      2 O          22.9313   73.3341   -7.7886 O.3     1  UNL1       -0.4371
      3 O          21.5585   74.2818   -5.8945 O.2     1  UNL1       -0.5170
      4 O          20.7510   72.1325   -6.9430 O.3     1  UNL1       -0.3112
      5 C          20.6798   71.4466   -8.1944 C.3     1  UNL1        0.1811
      6 C          17.5451   70.1926   -6.9542 C.3     1  UNL1        0.2383
      7 C          17.1509   71.1843   -8.0782 C.3     1  UNL1        0.1895
      8 O          15.9355   70.7803   -8.7117 O.3     1  UNL1       -0.3779
      9 C          18.3481   71.0642   -9.0526 C.3     1  UNL1        0.1713
     10 C          19.4843   70.4908   -8.1843 C.3     1  UNL1        0.1764
     11 O          18.9758   70.3582   -6.8474 O.3     1  UNL1       -0.3308
     12 O          18.0340   70.1692  -10.1209 O.3     1  UNL1       -0.3794
     13 H          15.6470   71.3696   -9.4217 H       1  UNL1        0.2106
     14 H          17.2868   70.4520  -10.6651 H       1  UNL1        0.2105
     15 N          16.8884   70.5521   -5.6954 N.ar    1  UNL1       -0.2551
     16 C          16.5193   69.5853   -4.8365 C.ar    1  UNL1        0.3323
     17 N          15.9138   69.8867   -3.6725 N.ar    1  UNL1       -0.2743
     18 C          15.6686   71.1724   -3.3481 C.ar    1  UNL1        0.2626
     19 C          16.0527   72.2004   -4.2424 C.ar    1  UNL1        0.0795
     20 C          16.6619   71.8696   -5.4004 C.ar    1  UNL1        0.0869
     21 O          16.7343   68.4216   -5.1159 O.2     1  UNL1       -0.2464
     22 O          15.1211   71.4466   -2.2947 O.2     1  UNL1       -0.2670
     23 H          15.6532   69.1772   -3.0652 H       1  UNL1        0.1734
     24 O          22.8936   72.1928   -5.4202 O.3     1  UNL1       -0.2703
     25 P          23.4367   72.5196   -3.9399 P.3     1  UNL1        0.2208
     26 O          23.9605   71.1623   -3.2492 O.3     1  UNL1       -0.4371
     27 O          24.5499   73.4901   -4.0257 O.2     1  UNL1       -0.5170
     28 O          22.2447   73.1461   -3.0572 O.3     1  UNL1       -0.2865
     29 C          22.1424   72.9613   -1.6442 C.3     1  UNL1        0.2611
     30 C          20.8597   72.1914   -1.3208 C.3     1  UNL1        0.1582
     31 C          19.6511   73.0182   -1.7704 C.3     1  UNL1        0.1625
     32 C          19.6967   74.3851   -1.0821 C.3     1  UNL1        0.1686
     33 C          21.0247   75.0707   -1.4148 C.3     1  UNL1        0.1760
     34 O          18.4467   72.3400   -1.4060 O.3     1  UNL1       -0.3801
     35 O          19.5893   74.2117    0.3320 O.3     1  UNL1       -0.3794
     36 O          22.1072   74.2359   -0.9988 O.3     1  UNL1       -0.3263
     37 H          17.6398   72.8076   -1.6615 H       1  UNL1        0.2105
     38 H          19.6119   75.0389    0.8332 H       1  UNL1        0.2105
     39 C          20.2667   70.7999   -3.2313 C.2     1  UNL1        0.2231
     40 C          20.2737   69.4822   -3.9608 C.3     1  UNL1        0.0946
     41 N          20.8668   70.9091   -2.0296 N.am    1  UNL1       -0.2994
     42 O          19.7204   71.7641   -3.7255 O.2     1  UNL1       -0.2751
     43 H          21.3028   70.1383   -1.6337 H       1  UNL1        0.1496
     44 C          21.1036   76.4116   -0.6826 C.3     1  UNL1        0.1693
     45 O          21.7176   76.2226    0.5940 O.3     1  UNL1       -0.3794
     46 H          21.8008   77.0330    1.1149 H       1  UNL1        0.2105
@<TRIPOS>BOND
     1    29    30    1
     2    30    41    1
     3    30    31    1
     4    31    34    1
     5    31    32    1
     6    32    35    1
     7    32    33    1
     8    33    36    1
     9    33    44    1
    10    39    40    1
    11    39    42    2
    12    39    41   am
    13    41    43    1
    14    29    28    1
    15    34    37    1
    16    35    38    1
    17    29    36    1
    18    44    45    1
    19    45    46    1
    20    15     6    1
    21    15    16   ar
    22    16    21    2
    23    16    17   ar
    24    17    23    1
    25    17    18   ar
    26    18    19   ar
    27    19    20   ar
    28    15    20   ar
    29    18    22    2
    30     6     7    1
    31     6    11    1
    32     7     9    1
    33     7     8    1
    34     8    13    1
    35     9    10    1
    36     9    12    1
    37    10     5    1
    38    10    11    1
    39    12    14    1
    40     5     4    1
    41     4     1    1
    42     1     2    1
    43     1    24    1
    44     1     3    2
    45    24    25    1
    46    28    25    1
    47    25    26    1
    48    25    27    2
@<TRIPOS>MOLECULE
UD2
 46 48 0 0 0
SMALL
GASTEIGER

@<TRIPOS>ATOM
      1 P          22.5033   72.6693   -3.2836 P.3     1  UNL1        0.2189
      2 O          23.3556   73.8639   -2.6218 O.3     1  UNL1       -0.4371
      3 O          23.4131   71.5680   -3.6688 O.2     1  UNL1       -0.5170
      4 O          21.4241   72.1264   -2.2186 O.3     1  UNL1       -0.3112
      5 C          21.5742   70.8875   -1.5229 C.3     1  UNL1        0.1811
      6 C          22.8720   71.8002    1.7050 C.3     1  UNL1        0.2383
      7 C          22.3010   73.1200    1.1272 C.3     1  UNL1        0.1895
      8 O          21.8247   73.9704    2.1721 O.3     1  UNL1       -0.3779
      9 C          21.1296   72.6118    0.2515 C.3     1  UNL1        0.1713
     10 C          21.4727   71.1338   -0.0156 C.3     1  UNL1        0.1764
     11 O          22.7388   70.8689    0.6093 O.3     1  UNL1       -0.3308
     12 O          19.8939   72.7187    0.9603 O.3     1  UNL1       -0.3794
     13 H          21.4583   74.8091    1.8607 H       1  UNL1        0.2106
     14 H          19.6576   73.6232    1.2063 H       1  UNL1        0.2105
     15 N          24.2797   71.9651    2.0741 N.ar    1  UNL1       -0.2551
     16 C          25.0757   70.8849    2.1653 C.ar    1  UNL1        0.3323
     17 N          26.3732   71.0069    2.5027 N.ar    1  UNL1       -0.2743
     18 C          26.8976   72.2236    2.7542 C.ar    1  UNL1        0.2626
     19 C          26.0714   73.3694    2.6609 C.ar    1  UNL1        0.0795
     20 C          24.7753   73.2180    2.3165 C.ar    1  UNL1        0.0869
     21 O          24.6165   69.7816    1.9411 O.2     1  UNL1       -0.2464
     22 O          28.0719   72.3354    3.0593 O.2     1  UNL1       -0.2670
     23 H          26.9329   70.2175    2.5651 H       1  UNL1        0.1734
     24 O          21.7381   73.2159   -4.5909 O.3     1  UNL1       -0.2703
     25 P          20.7941   72.5314   -5.7015 P.3     1  UNL1        0.2208
     26 O          20.2310   73.6642   -6.6983 O.3     1  UNL1       -0.4371
     27 O          21.5774   71.5416   -6.4729 O.2     1  UNL1       -0.5170
     28 O          19.5608   71.7929   -4.9761 O.3     1  UNL1       -0.2865
     29 C          19.2278   70.4232   -5.2088 C.3     1  UNL1        0.2611
     30 C          18.1309   70.3374   -6.2728 C.3     1  UNL1        0.1582
     31 C          16.8725   71.0403   -5.7542 C.3     1  UNL1        0.1625
     32 C          16.4495   70.3962   -4.4311 C.3     1  UNL1        0.1686
     33 C          17.6116   70.4798   -3.4379 C.3     1  UNL1        0.1760
     34 O          15.8197   70.9014   -6.7111 O.3     1  UNL1       -0.3801
     35 O          16.1087   69.0267   -4.6540 O.3     1  UNL1       -0.3794
     36 O          18.7588   69.8344   -3.9940 O.3     1  UNL1       -0.3263
     37 H          14.9910   71.3245   -6.4477 H       1  UNL1        0.2105
     38 H          15.8311   68.5549   -3.8563 H       1  UNL1        0.2105
     39 C          18.8147   70.2639   -8.6105 C.2     1  UNL1        0.2231
     40 C          19.2840   70.9378   -9.8731 C.3     1  UNL1        0.0946
     41 N          18.5876   70.9936   -7.5005 N.am    1  UNL1       -0.2994
     42 O          18.6409   69.0632   -8.5921 O.2     1  UNL1       -0.2751
     43 H          18.7274   71.9534   -7.5145 H       1  UNL1        0.1496
     44 C          17.2178   69.7853   -2.1329 C.3     1  UNL1        0.1693
     45 O          17.3730   68.3722   -2.2789 O.3     1  UNL1       -0.3794
     46 H          17.1405   67.8666   -1.4880 H       1  UNL1        0.2105
@<TRIPOS>BOND
     1    29    30    1
     2    30    41    1
     3    30    31    1
     4    31    34    1
     5    31    32    1
     6    32    35    1
     7    32    33    1
     8    33    36    1
     9    33    44    1
    10    39    40    1
    11    39    42    2
    12    39    41   am
    13    41    43    1
    14    29    28    1
    15    34    37    1
    16    35    38    1
    17    29    36    1
    18    44    45    1
    19    45    46    1
    20    15     6    1
    21    15    16   ar
    22    16    21    2
    23    16    17   ar
    24    17    23    1
    25    17    18   ar
    26    18    19   ar
    27    19    20   ar
    28    15    20   ar
    29    18    22    2
    30     6     7    1
    31     6    11    1
    32     7     9    1
    33     7     8    1
    34     8    13    1
    35     9    10    1
    36     9    12    1
    37    10     5    1
    38    10    11    1
    39    12    14    1
    40     5     4    1
    41     4     1    1
    42     1     2    1
    43     1    24    1
    44     1     3    2
    45    24    25    1
    46    28    25    1
    47    25    26    1
    48    25    27    2
@<TRIPOS>MOLECULE
UD2
 46 48 0 0 0
SMALL
GASTEIGER

@<TRIPOS>ATOM
      1 P          20.8156   72.4549   -2.1948 P.3     1  UNL1        0.2189
      2 O          19.6070   73.1737   -1.4113 O.3     1  UNL1       -0.4371
      3 O          21.8155   71.9669   -1.2196 O.2     1  UNL1       -0.5170
      4 O          20.2413   71.2117   -3.0424 O.3     1  UNL1       -0.3112
      5 C          19.2160   70.3452   -2.5533 C.3     1  UNL1        0.1811
      6 C          17.3202   70.4626   -5.6076 C.3     1  UNL1        0.2383
      7 C          17.1418   69.0113   -5.0937 C.3     1  UNL1        0.1895
      8 O          15.8707   68.4857   -5.4810 O.3     1  UNL1       -0.3779
      9 C          17.2177   69.1981   -3.5585 C.3     1  UNL1        0.1713
     10 C          17.9426   70.5456   -3.3786 C.3     1  UNL1        0.1764
     11 O          18.2803   71.0281   -4.6888 O.3     1  UNL1       -0.3308
     12 O          15.9052   69.2570   -2.9976 O.3     1  UNL1       -0.3794
     13 H          15.7122   67.5797   -5.1833 H       1  UNL1        0.2106
     14 H          15.3822   68.4554   -3.1336 H       1  UNL1        0.2105
     15 N          17.8491   70.4648   -6.9733 N.ar    1  UNL1       -0.2551
     16 C          17.0017   70.4094   -8.0162 C.ar    1  UNL1        0.3323
     17 N          17.4599   70.4099   -9.2820 N.ar    1  UNL1       -0.2743
     18 C          18.7853   70.4682   -9.5240 C.ar    1  UNL1        0.2626
     19 C          19.6887   70.5279   -8.4357 C.ar    1  UNL1        0.0795
     20 C          19.2012   70.5303   -7.1771 C.ar    1  UNL1        0.0869
     21 O          15.8041   70.3567   -7.8129 O.2     1  UNL1       -0.2464
     22 O          19.2013   70.4691  -10.6692 O.2     1  UNL1       -0.2670
     23 H          16.8352   70.3682  -10.0224 H       1  UNL1        0.1734
     24 O          21.5103   73.5095   -3.1941 O.3     1  UNL1       -0.2703
     25 P          22.8801   73.5121   -4.0406 P.3     1  UNL1        0.2208
     26 O          24.0714   74.1014   -3.1310 O.3     1  UNL1       -0.4371
     27 O          23.2103   72.1293   -4.4495 O.2     1  UNL1       -0.5170
     28 O          22.6996   74.4310   -5.3505 O.3     1  UNL1       -0.2865
     29 C          22.6743   75.8587   -5.3023 C.3     1  UNL1        0.2611
     30 C          21.5599   76.3812   -6.2123 C.3     1  UNL1        0.1582
     31 C          21.8577   75.9698   -7.6575 C.3     1  UNL1        0.1625
     32 C          23.2340   76.5087   -8.0571 C.3     1  UNL1        0.1686
     33 C          24.2841   75.9811   -7.0757 C.3     1  UNL1        0.1760
     34 O          20.8609   76.5160   -8.5242 O.3     1  UNL1       -0.3801
     35 O          23.2177   77.9368   -8.0177 O.3     1  UNL1       -0.3794
     36 O          23.9314   76.3724   -5.7474 O.3     1  UNL1       -0.3263
     37 H          20.9869   76.2941   -9.4570 H       1  UNL1        0.2105
     38 H          24.0597   78.3473   -8.2595 H       1  UNL1        0.2105
     39 C          19.8512   74.6480   -6.3308 C.2     1  UNL1        0.2231
     40 C          18.5335   74.0582   -5.9015 C.3     1  UNL1        0.0946
     41 N          20.2779   75.8083   -5.7944 N.am    1  UNL1       -0.2994
     42 O          20.5295   74.0785   -7.1602 O.2     1  UNL1       -0.2751
     43 H          19.7355   76.2644   -5.1320 H       1  UNL1        0.1496
     44 C          25.6532   76.5630   -7.4326 C.3     1  UNL1        0.1693
     45 O          26.2328   75.8022   -8.4945 O.3     1  UNL1       -0.3794
     46 H          27.1042   76.1153   -8.7733 H       1  UNL1        0.2105
@<TRIPOS>BOND
     1    29    30    1
     2    30    41    1
     3    30    31    1
     4    31    34    1
     5    31    32    1
     6    32    35    1
     7    32    33    1
     8    33    36    1
     9    33    44    1
    10    39    40    1
    11    39    42    2
    12    39    41   am
    13    41    43    1
    14    29    28    1
    15    34    37    1
    16    35    38    1
    17    29    36    1
    18    44    45    1
    19    45    46    1
    20    15     6    1
    21    15    16   ar
    22    16    21    2
    23    16    17   ar
    24    17    23    1
    25    17    18   ar
    26    18    19   ar
    27    19    20   ar
    28    15    20   ar
    29    18    22    2
    30     6     7    1
    31     6    11    1
    32     7     9    1
    33     7     8    1
    34     8    13    1
    35     9    10    1
    36     9    12    1
    37    10     5    1
    38    10    11    1
    39    12    14    1
    40     5     4    1
    41     4     1    1
    42     1     2    1
    43     1    24    1
    44     1     3    2
    45    24    25    1
    46    28    25    1
    47    25    26    1
    48    25    27    2
@<TRIPOS>MOLECULE
UD2
 46 48 0 0 0
SMALL
GASTEIGER

@<TRIPOS>ATOM
      1 P          20.4762   71.0586   -2.8313 P.3     1  UNL1        0.2189
      2 O          20.6290   69.6928   -3.6697 O.3     1  UNL1       -0.4371
      3 O          21.5610   71.9922   -3.2062 O.2     1  UNL1       -0.5170
      4 O          19.0508   71.7327   -3.1591 O.3     1  UNL1       -0.3112
      5 C          17.8446   71.3656   -2.4869 C.3     1  UNL1        0.1811
      6 C          16.6392   70.5649   -5.7797 C.3     1  UNL1        0.2383
      7 C          16.8132   69.1911   -5.0836 C.3     1  UNL1        0.1895
      8 O          15.8635   68.2449   -5.5782 O.3     1  UNL1       -0.3779
      9 C          16.5266   69.5385   -3.6022 C.3     1  UNL1        0.1713
     10 C          16.7580   71.0595   -3.5206 C.3     1  UNL1        0.1764
     11 O          17.1828   71.4980   -4.8208 O.3     1  UNL1       -0.3308
     12 O          15.1752   69.2190   -3.2672 O.3     1  UNL1       -0.3794
     13 H          15.9327   67.3696   -5.1735 H       1  UNL1        0.2106
     14 H          14.9577   68.2815   -3.3583 H       1  UNL1        0.2105
     15 N          17.3991   70.6091   -7.0310 N.ar    1  UNL1       -0.2551
     16 C          16.7471   70.6004   -8.2072 C.ar    1  UNL1        0.3323
     17 N          17.4198   70.6400   -9.3726 N.ar    1  UNL1       -0.2743
     18 C          18.7674   70.6912   -9.3769 C.ar    1  UNL1        0.2626
     19 C          19.4666   70.7019   -8.1460 C.ar    1  UNL1        0.0795
     20 C          18.7664   70.6657   -6.9928 C.ar    1  UNL1        0.0869
     21 O          15.5321   70.5547   -8.2184 O.2     1  UNL1       -0.2464
     22 O          19.3775   70.7275  -10.4310 O.2     1  UNL1       -0.2670
     23 H          16.9342   70.6319  -10.2118 H       1  UNL1        0.1734
     24 O          20.5666   70.7348   -1.2564 O.3     1  UNL1       -0.2703
     25 P          21.5075   71.2593   -0.0596 P.3     1  UNL1        0.2208
     26 O          21.5051   70.1806    1.1363 O.3     1  UNL1       -0.4371
     27 O          22.8884   71.4378   -0.5593 O.2     1  UNL1       -0.5170
     28 O          20.9475   72.6670    0.4858 O.3     1  UNL1       -0.2865
     29 C          21.7995   73.7495    0.8648 C.3     1  UNL1        0.2611
     30 C          23.2561   73.3791    0.5755 C.3     1  UNL1        0.1582
     31 C          23.6430   72.1637    1.4238 C.3     1  UNL1        0.1625
     32 C          23.4096   72.4907    2.9013 C.3     1  UNL1        0.1686
     33 C          21.9466   72.8954    3.1010 C.3     1  UNL1        0.1760
     34 O          25.0232   71.8559    1.2150 O.3     1  UNL1       -0.3801
     35 O          24.2616   73.5689    3.2922 O.3     1  UNL1       -0.3794
     36 O          21.6439   74.0111    2.2611 O.3     1  UNL1       -0.3263
     37 H          25.3369   71.0943    1.7218 H       1  UNL1        0.2105
     38 H          24.1662   73.8305    4.2188 H       1  UNL1        0.2105
     39 C          23.9952   73.9299   -1.6802 C.2     1  UNL1        0.2231
     40 C          24.1489   73.5946   -3.1405 C.3     1  UNL1        0.0946
     41 N          23.4051   73.0523   -0.8449 N.am    1  UNL1       -0.2994
     42 O          24.4026   74.9908   -1.2550 O.2     1  UNL1       -0.2751
     43 H          23.0782   72.2045   -1.1845 H       1  UNL1        0.1496
     44 C          21.7196   73.2812    4.5638 C.3     1  UNL1        0.1693
     45 O          22.4185   72.3679    5.4122 O.3     1  UNL1       -0.3794
     46 H          22.3190   72.5523    6.3562 H       1  UNL1        0.2105
@<TRIPOS>BOND
     1    29    30    1
     2    30    41    1
     3    30    31    1
     4    31    34    1
     5    31    32    1
     6    32    35    1
     7    32    33    1
     8    33    36    1
     9    33    44    1
    10    39    40    1
    11    39    42    2
    12    39    41   am
    13    41    43    1
    14    29    28    1
    15    34    37    1
    16    35    38    1
    17    29    36    1
    18    44    45    1
    19    45    46    1
    20    15     6    1
    21    15    16   ar
    22    16    21    2
    23    16    17   ar
    24    17    23    1
    25    17    18   ar
    26    18    19   ar
    27    19    20   ar
    28    15    20   ar
    29    18    22    2
    30     6     7    1
    31     6    11    1
    32     7     9    1
    33     7     8    1
    34     8    13    1
    35     9    10    1
    36     9    12    1
    37    10     5    1
    38    10    11    1
    39    12    14    1
    40     5     4    1
    41     4     1    1
    42     1     2    1
    43     1    24    1
    44     1     3    2
    45    24    25    1
    46    28    25    1
    47    25    26    1
    48    25    27    2
@<TRIPOS>MOLECULE
UD2
 46 48 0 0 0
SMALL
GASTEIGER

@<TRIPOS>ATOM
      1 P          21.7586   73.1033   -6.4383 P.3     1  UNL1        0.2189
      2 O          23.1692   72.7067   -7.1051 O.3     1  UNL1       -0.4371
      3 O          21.3207   74.4187   -6.9548 O.2     1  UNL1       -0.5170
      4 O          20.6577   71.9877   -6.8086 O.3     1  UNL1       -0.3112
      5 C          20.5730   71.3772   -8.0976 C.3     1  UNL1        0.1811
      6 C          17.4331   70.0746   -6.9224 C.3     1  UNL1        0.2383
      7 C          17.0436   71.1125   -8.0056 C.3     1  UNL1        0.1895
      8 O          15.8304   70.7359   -8.6599 O.3     1  UNL1       -0.3779
      9 C          18.2444   71.0322   -8.9797 C.3     1  UNL1        0.1713
     10 C          19.3770   70.4225   -8.1318 C.3     1  UNL1        0.1764
     11 O          18.8634   70.2347   -6.8035 O.3     1  UNL1       -0.3308
     12 O          17.9339   70.1827  -10.0855 O.3     1  UNL1       -0.3794
     13 H          15.5448   71.3544   -9.3458 H       1  UNL1        0.2106
     14 H          17.1889   70.4884  -10.6202 H       1  UNL1        0.2105
     15 N          16.7718   70.3818   -5.6522 N.ar    1  UNL1       -0.2551
     16 C          16.4104   69.3808   -4.8299 C.ar    1  UNL1        0.3323
     17 N          15.8010   69.6339   -3.6565 N.ar    1  UNL1       -0.2743
     18 C          15.5441   70.9047   -3.2854 C.ar    1  UNL1        0.2626
     19 C          15.9200   71.9682   -4.1408 C.ar    1  UNL1        0.0795
     20 C          16.5334   71.6855   -5.3093 C.ar    1  UNL1        0.0869
     21 O          16.6359   68.2302   -5.1516 O.2     1  UNL1       -0.2464
     22 O          14.9929   71.1352   -2.2235 O.2     1  UNL1       -0.2670
     23 H          15.5459   68.9004   -3.0761 H       1  UNL1        0.1734
     24 O          21.9243   73.1826   -4.8385 O.3     1  UNL1       -0.2703
     25 P          23.0911   73.7062   -3.8600 P.3     1  UNL1        0.2208
     26 O          24.4752   72.9736   -4.2361 O.3     1  UNL1       -0.4371
     27 O          23.2488   75.1685   -4.0184 O.2     1  UNL1       -0.5170
     28 O          22.7028   73.3700   -2.3340 O.3     1  UNL1       -0.2865
     29 C          23.5021   72.5363   -1.4929 C.3     1  UNL1        0.2611
     30 C          22.6439   71.3964   -0.9388 C.3     1  UNL1        0.1582
     31 C          21.5217   71.9855   -0.0785 C.3     1  UNL1        0.1625
     32 C          22.1393   72.8399    1.0319 C.3     1  UNL1        0.1686
     33 C          23.0171   73.9244    0.4016 C.3     1  UNL1        0.1760
     34 O          20.7594   70.9252    0.5027 O.3     1  UNL1       -0.3801
     35 O          22.9365   72.0140    1.8826 O.3     1  UNL1       -0.3794
     36 O          24.0207   73.3108   -0.4096 O.3     1  UNL1       -0.3263
     37 H          20.0295   71.2264    1.0610 H       1  UNL1        0.2105
     38 H          23.3602   72.4907    2.6101 H       1  UNL1        0.2105
     39 C          20.8297   70.9404   -2.5003 C.2     1  UNL1        0.2231
     40 C          20.2316   70.1606   -3.6417 C.3     1  UNL1        0.0946
     41 N          22.0628   70.6373   -2.0489 N.am    1  UNL1       -0.2994
     42 O          20.2013   71.8423   -1.9865 O.2     1  UNL1       -0.2751
     43 H          22.5651   69.9157   -2.4588 H       1  UNL1        0.1496
     44 C          23.6852   74.7452    1.5063 C.3     1  UNL1        0.1693
     45 O          25.0649   74.9391    1.1884 O.3     1  UNL1       -0.3794
     46 H          25.5524   75.4527    1.8468 H       1  UNL1        0.2105
@<TRIPOS>BOND
     1    29    30    1
     2    30    41    1
     3    30    31    1
     4    31    34    1
     5    31    32    1
     6    32    35    1
     7    32    33    1
     8    33    36    1
     9    33    44    1
    10    39    40    1
    11    39    42    2
    12    39    41   am
    13    41    43    1
    14    29    28    1
    15    34    37    1
    16    35    38    1
    17    29    36    1
    18    44    45    1
    19    45    46    1
    20    15     6    1
    21    15    16   ar
    22    16    21    2
    23    16    17   ar
    24    17    23    1
    25    17    18   ar
    26    18    19   ar
    27    19    20   ar
    28    15    20   ar
    29    18    22    2
    30     6     7    1
    31     6    11    1
    32     7     9    1
    33     7     8    1
    34     8    13    1
    35     9    10    1
    36     9    12    1
    37    10     5    1
    38    10    11    1
    39    12    14    1
    40     5     4    1
    41     4     1    1
    42     1     2    1
    43     1    24    1
    44     1     3    2
    45    24    25    1
    46    28    25    1
    47    25    26    1
    48    25    27    2
@<TRIPOS>MOLECULE
UD2
 46 48 0 0 0
SMALL
GASTEIGER

@<TRIPOS>ATOM
      1 P          22.2082   71.3231    0.1780 P.3     1  UNL1        0.2189
      2 O          23.7141   70.8077   -0.0628 O.3     1  UNL1       -0.4371
      3 O          21.5496   70.4687    1.1905 O.2     1  UNL1       -0.5170
      4 O          22.2395   72.8465    0.6996 O.3     1  UNL1       -0.3112
      5 C          23.1867   73.3202    1.6587 C.3     1  UNL1        0.1811
      6 C          22.7409   73.8246    5.1919 C.3     1  UNL1        0.2383
      7 C          21.4106   74.3056    4.5587 C.3     1  UNL1        0.1895
      8 O          20.3146   74.0917    5.4503 O.3     1  UNL1       -0.3779
      9 C          21.2950   73.3937    3.3126 C.3     1  UNL1        0.1713
     10 C          22.7370   72.9118    3.0637 C.3     1  UNL1        0.1764
     11 O          23.5742   73.5410    4.0470 O.3     1  UNL1       -0.3308
     12 O          20.4364   72.2847    3.5839 O.3     1  UNL1       -0.3794
     13 H          19.4603   74.3772    5.0993 H       1  UNL1        0.2106
     14 H          19.5290   72.5338    3.8054 H       1  UNL1        0.2105
     15 N          23.3339   74.8828    6.0125 N.ar    1  UNL1       -0.2551
     16 C          23.0936   74.9139    7.3355 C.ar    1  UNL1        0.3323
     17 N          23.6253   75.8750    8.1138 N.ar    1  UNL1       -0.2743
     18 C          24.4139   76.8264    7.5741 C.ar    1  UNL1        0.2626
     19 C          24.6761   76.8053    6.1831 C.ar    1  UNL1        0.0795
     20 C          24.1333   75.8276    5.4274 C.ar    1  UNL1        0.0869
     21 O          22.3845   74.0622    7.8357 O.2     1  UNL1       -0.2464
     22 O          24.8961   77.6966    8.2775 O.2     1  UNL1       -0.2670
     23 H          23.4409   75.8833    9.0657 H       1  UNL1        0.1734
     24 O          21.3870   71.2470   -1.2052 O.3     1  UNL1       -0.2703
     25 P          21.7110   71.6770   -2.7228 P.3     1  UNL1        0.2208
     26 O          21.9786   73.2639   -2.7849 O.3     1  UNL1       -0.4371
     27 O          22.9136   70.9558   -3.1941 O.2     1  UNL1       -0.5170
     28 O          20.4588   71.3062   -3.6646 O.3     1  UNL1       -0.2865
     29 C          19.6580   72.2921   -4.3189 C.3     1  UNL1        0.2611
     30 C          18.3420   71.6594   -4.7778 C.3     1  UNL1        0.1582
     31 C          18.6439   70.5552   -5.7956 C.3     1  UNL1        0.1625
     32 C          19.4380   71.1526   -6.9604 C.3     1  UNL1        0.1686
     33 C          20.7121   71.8049   -6.4172 C.3     1  UNL1        0.1760
     34 O          17.4170   70.0085   -6.2846 O.3     1  UNL1       -0.3801
     35 O          18.6434   72.1363   -7.6254 O.3     1  UNL1       -0.3794
     36 O          20.3621   72.8006   -5.4537 O.3     1  UNL1       -0.3263
     37 H          17.5332   69.3016   -6.9342 H       1  UNL1        0.2105
     38 H          19.0851   72.5581   -8.3757 H       1  UNL1        0.2105
     39 C          17.8193   69.7851   -3.3110 C.2     1  UNL1        0.2231
     40 C          17.1051   69.1934   -2.1243 C.3     1  UNL1        0.0946
     41 N          17.6467   71.0846   -3.6234 N.am    1  UNL1       -0.2994
     42 O          18.5507   69.0917   -3.9867 O.2     1  UNL1       -0.2751
     43 H          17.0613   71.6391   -3.0841 H       1  UNL1        0.1496
     44 C          21.4817   72.4564   -7.5678 C.3     1  UNL1        0.1693
     45 O          21.1615   73.8478   -7.6284 O.3     1  UNL1       -0.3794
     46 H          21.6146   74.3257   -8.3365 H       1  UNL1        0.2105
@<TRIPOS>BOND
     1    29    30    1
     2    30    41    1
     3    30    31    1
     4    31    34    1
     5    31    32    1
     6    32    35    1
     7    32    33    1
     8    33    36    1
     9    33    44    1
    10    39    40    1
    11    39    42    2
    12    39    41   am
    13    41    43    1
    14    29    28    1
    15    34    37    1
    16    35    38    1
    17    29    36    1
    18    44    45    1
    19    45    46    1
    20    15     6    1
    21    15    16   ar
    22    16    21    2
    23    16    17   ar
    24    17    23    1
    25    17    18   ar
    26    18    19   ar
    27    19    20   ar
    28    15    20   ar
    29    18    22    2
    30     6     7    1
    31     6    11    1
    32     7     9    1
    33     7     8    1
    34     8    13    1
    35     9    10    1
    36     9    12    1
    37    10     5    1
    38    10    11    1
    39    12    14    1
    40     5     4    1
    41     4     1    1
    42     1     2    1
    43     1    24    1
    44     1     3    2
    45    24    25    1
    46    28    25    1
    47    25    26    1
    48    25    27    2
@<TRIPOS>MOLECULE
UD2
 46 48 0 0 0
SMALL
GASTEIGER

@<TRIPOS>ATOM
      1 P          16.1028   71.6058   -2.6086 P.3     1  UNL1        0.2189
      2 O          15.1257   72.2309   -3.7247 O.3     1  UNL1       -0.4371
      3 O          16.2489   72.5617   -1.4888 O.2     1  UNL1       -0.5170
      4 O          15.4772   70.2272   -2.0593 O.3     1  UNL1       -0.3112
      5 C          15.0722   70.0442   -0.7014 C.3     1  UNL1        0.1811
      6 C          13.1518   67.5568    1.0485 C.3     1  UNL1        0.2383
      7 C          12.1706   68.7405    0.8532 C.3     1  UNL1        0.1895
      8 O          10.8257   68.2735    0.7311 O.3     1  UNL1       -0.3779
      9 C          12.6646   69.3562   -0.4788 C.3     1  UNL1        0.1713
     10 C          14.1148   68.8533   -0.6111 C.3     1  UNL1        0.1764
     11 O          14.4077   68.0785    0.5625 O.3     1  UNL1       -0.3308
     12 O          11.8705   68.8873   -1.5699 O.3     1  UNL1       -0.3794
     13 H          10.1743   68.9771    0.6079 H       1  UNL1        0.2106
     14 H          10.9356   69.1251   -1.5077 H       1  UNL1        0.2105
     15 N          13.2544   67.2002    2.4653 N.ar    1  UNL1       -0.2551
     16 C          13.0125   65.9354    2.8533 C.ar    1  UNL1        0.3323
     17 N          13.0993   65.5796    4.1487 N.ar    1  UNL1       -0.2743
     18 C          13.4344   66.4930    5.0825 C.ar    1  UNL1        0.2626
     19 C          13.6928   67.8278    4.6879 C.ar    1  UNL1        0.0795
     20 C          13.6025   68.1556    3.3818 C.ar    1  UNL1        0.0869
     21 O          12.7095   65.1013    2.0222 O.2     1  UNL1       -0.2464
     22 O          13.5137   66.1722    6.2552 O.2     1  UNL1       -0.2670
     23 H          12.9204   64.6636    4.4116 H       1  UNL1        0.1734
     24 O          17.5469   71.3170   -3.2601 O.3     1  UNL1       -0.2703
     25 P          18.0721   70.3362   -4.4242 P.3     1  UNL1        0.2208
     26 O          18.3757   68.8815   -3.8034 O.3     1  UNL1       -0.4371
     27 O          17.0367   70.2175   -5.4741 O.2     1  UNL1       -0.5170
     28 O          19.4206   70.9386   -5.0655 O.3     1  UNL1       -0.2865
     29 C          19.6390   72.3391   -5.2454 C.3     1  UNL1        0.2611
     30 C          20.0402   72.6115   -6.6971 C.3     1  UNL1        0.1582
     31 C          21.3594   71.8929   -6.9966 C.3     1  UNL1        0.1625
     32 C          22.4231   72.3655   -6.0019 C.3     1  UNL1        0.1686
     33 C          21.9299   72.1024   -4.5766 C.3     1  UNL1        0.1760
     34 O          21.7795   72.2015   -8.3277 O.3     1  UNL1       -0.3801
     35 O          22.6532   73.7646   -6.1776 O.3     1  UNL1       -0.3794
     36 O          20.6847   72.7735   -4.3737 O.3     1  UNL1       -0.3263
     37 H          22.6098   71.7783   -8.5857 H       1  UNL1        0.2105
     38 H          23.3170   74.1331   -5.5779 H       1  UNL1        0.2105
     39 C          19.0962   70.8775   -8.1253 C.2     1  UNL1        0.2231
     40 C          18.0228   70.3637   -9.0486 C.3     1  UNL1        0.0946
     41 N          18.9959   72.1125   -7.5954 N.am    1  UNL1       -0.2994
     42 O          20.0520   70.1795   -7.8583 O.2     1  UNL1       -0.2751
     43 H          18.2323   72.6712   -7.8094 H       1  UNL1        0.1496
     44 C          22.9612   72.6264   -3.5755 C.3     1  UNL1        0.1693
     45 O          24.2718   72.5019   -4.1314 O.3     1  UNL1       -0.3794
     46 H          24.9778   72.8157   -3.5498 H       1  UNL1        0.2105
@<TRIPOS>BOND
     1    29    30    1
     2    30    41    1
     3    30    31    1
     4    31    34    1
     5    31    32    1
     6    32    35    1
     7    32    33    1
     8    33    36    1
     9    33    44    1
    10    39    40    1
    11    39    42    2
    12    39    41   am
    13    41    43    1
    14    29    28    1
    15    34    37    1
    16    35    38    1
    17    29    36    1
    18    44    45    1
    19    45    46    1
    20    15     6    1
    21    15    16   ar
    22    16    21    2
    23    16    17   ar
    24    17    23    1
    25    17    18   ar
    26    18    19   ar
    27    19    20   ar
    28    15    20   ar
    29    18    22    2
    30     6     7    1
    31     6    11    1
    32     7     9    1
    33     7     8    1
    34     8    13    1
    35     9    10    1
    36     9    12    1
    37    10     5    1
    38    10    11    1
    39    12    14    1
    40     5     4    1
    41     4     1    1
    42     1     2    1
    43     1    24    1
    44     1     3    2
    45    24    25    1
    46    28    25    1
    47    25    26    1
    48    25    27    2
@<TRIPOS>MOLECULE
UD2
 46 48 0 0 0
SMALL
GASTEIGER

@<TRIPOS>ATOM
      1 P          20.2938   71.5292   -1.7797 P.3     1  UNL1        0.2189
      2 O          20.2847   73.0502   -1.2527 O.3     1  UNL1       -0.4371
      3 O          20.1339   70.6081   -0.6330 O.2     1  UNL1       -0.5170
      4 O          19.0795   71.3130   -2.8153 O.3     1  UNL1       -0.3112
      5 C          17.7903   71.9018   -2.6351 C.3     1  UNL1        0.1811
      6 C          16.7662   70.4692   -5.7712 C.3     1  UNL1        0.2383
      7 C          17.2497   69.2606   -4.9300 C.3     1  UNL1        0.1895
      8 O          16.5319   68.0757   -5.2802 O.3     1  UNL1       -0.3779
      9 C          16.9056   69.7091   -3.4885 C.3     1  UNL1        0.1713
     10 C          16.7909   71.2422   -3.5885 C.3     1  UNL1        0.1764
     11 O          17.0952   71.6065   -4.9443 O.3     1  UNL1       -0.3308
     12 O          15.6631   69.1402   -3.0722 O.3     1  UNL1       -0.3794
     13 H          16.7991   67.2918   -4.7813 H       1  UNL1        0.2106
     14 H          15.6604   68.1738   -3.0485 H       1  UNL1        0.2105
     15 N          17.4858   70.5318   -7.0453 N.ar    1  UNL1       -0.2551
     16 C          16.7958   70.5808   -8.1986 C.ar    1  UNL1        0.3323
     17 N          17.4310   70.6386   -9.3841 N.ar    1  UNL1       -0.2743
     18 C          18.7787   70.6502   -9.4321 C.ar    1  UNL1        0.2626
     19 C          19.5176   70.6001   -8.2256 C.ar    1  UNL1        0.0795
     20 C          18.8546   70.5469   -7.0513 C.ar    1  UNL1        0.0869
     21 O          15.5802   70.5712   -8.1705 O.2     1  UNL1       -0.2464
     22 O          19.3549   70.7030  -10.5044 O.2     1  UNL1       -0.2670
     23 H          16.9182   70.6722  -10.2063 H       1  UNL1        0.1734
     24 O          21.6909   71.2261   -2.5211 O.3     1  UNL1       -0.2703
     25 P          23.2291   71.5700   -2.1913 P.3     1  UNL1        0.2208
     26 O          23.5009   71.3561   -0.6183 O.3     1  UNL1       -0.4371
     27 O          24.1128   70.6751   -2.9701 O.2     1  UNL1       -0.5170
     28 O          23.5330   73.1013   -2.5856 O.3     1  UNL1       -0.2865
     29 C          24.3828   73.4712   -3.6729 C.3     1  UNL1        0.2611
     30 C          24.4737   74.9969   -3.7545 C.3     1  UNL1        0.1582
     31 C          23.0809   75.5683   -4.0375 C.3     1  UNL1        0.1625
     32 C          22.5396   74.9491   -5.3290 C.3     1  UNL1        0.1686
     33 C          22.5232   73.4248   -5.1866 C.3     1  UNL1        0.1760
     34 O          23.1688   76.9870   -4.1883 O.3     1  UNL1       -0.3801
     35 O          23.3797   75.3180   -6.4243 O.3     1  UNL1       -0.3794
     36 O          23.8428   72.9612   -4.8938 O.3     1  UNL1       -0.3263
     37 H          22.3212   77.4162   -4.3691 H       1  UNL1        0.2105
     38 H          23.0960   74.9590   -7.2767 H       1  UNL1        0.2105
     39 C          24.1030   75.8737   -1.5115 C.2     1  UNL1        0.2231
     40 C          24.6133   76.4178   -0.2030 C.3     1  UNL1        0.0946
     41 N          24.9709   75.5262   -2.4821 N.am    1  UNL1       -0.2994
     42 O          22.9098   75.7481   -1.6923 O.2     1  UNL1       -0.2751
     43 H          25.9249   75.6274   -2.3383 H       1  UNL1        0.1496
     44 C          22.0398   72.7958   -6.4946 C.3     1  UNL1        0.1693
     45 O          23.1631   72.5111   -7.3309 O.3     1  UNL1       -0.3794
     46 H          22.9308   72.1098   -8.1794 H       1  UNL1        0.2105
@<TRIPOS>BOND
     1    29    30    1
     2    30    41    1
     3    30    31    1
     4    31    34    1
     5    31    32    1
     6    32    35    1
     7    32    33    1
     8    33    36    1
     9    33    44    1
    10    39    40    1
    11    39    42    2
    12    39    41   am
    13    41    43    1
    14    29    28    1
    15    34    37    1
    16    35    38    1
    17    29    36    1
    18    44    45    1
    19    45    46    1
    20    15     6    1
    21    15    16   ar
    22    16    21    2
    23    16    17   ar
    24    17    23    1
    25    17    18   ar
    26    18    19   ar
    27    19    20   ar
    28    15    20   ar
    29    18    22    2
    30     6     7    1
    31     6    11    1
    32     7     9    1
    33     7     8    1
    34     8    13    1
    35     9    10    1
    36     9    12    1
    37    10     5    1
    38    10    11    1
    39    12    14    1
    40     5     4    1
    41     4     1    1
    42     1     2    1
    43     1    24    1
    44     1     3    2
    45    24    25    1
    46    28    25    1
    47    25    26    1
    48    25    27    2
@<TRIPOS>MOLECULE
UD2
 46 48 0 0 0
SMALL
GASTEIGER

@<TRIPOS>ATOM
      1 P          21.1384   71.8191   -0.1631 P.3     1  UNL1        0.2189
      2 O          20.1011   72.8144    0.5613 O.3     1  UNL1       -0.4371
      3 O          20.9083   70.4363    0.3098 O.2     1  UNL1       -0.5170
      4 O          20.9202   71.8845   -1.7575 O.3     1  UNL1       -0.3112
      5 C          20.5389   70.7493   -2.5368 C.3     1  UNL1        0.1811
      6 C          18.0298   70.7570   -5.1138 C.3     1  UNL1        0.2383
      7 C          17.9171   69.3543   -4.4644 C.3     1  UNL1        0.1895
      8 O          16.5749   68.8686   -4.5291 O.3     1  UNL1       -0.3779
      9 C          18.3314   69.6396   -3.0000 C.3     1  UNL1        0.1713
     10 C          19.1243   70.9579   -3.0830 C.3     1  UNL1        0.1764
     11 O          19.1857   71.3337   -4.4681 O.3     1  UNL1       -0.3308
     12 O          17.1750   69.8019   -2.1771 O.3     1  UNL1       -0.3794
     13 H          16.4535   67.9937   -4.1361 H       1  UNL1        0.2106
     14 H          16.6075   69.0204   -2.1363 H       1  UNL1        0.2105
     15 N          18.2490   70.6411   -6.5573 N.ar    1  UNL1       -0.2551
     16 C          17.1960   70.6486   -7.3939 C.ar    1  UNL1        0.3323
     17 N          17.3679   70.5434   -8.7249 N.ar    1  UNL1       -0.2743
     18 C          18.6081   70.4300   -9.2422 C.ar    1  UNL1        0.2626
     19 C          19.7257   70.4217   -8.3732 C.ar    1  UNL1        0.0795
     20 C          19.5242   70.5330   -7.0434 C.ar    1  UNL1        0.0869
     21 O          16.0720   70.7505   -6.9415 O.2     1  UNL1       -0.2464
     22 O          18.7651   70.3351  -10.4467 O.2     1  UNL1       -0.2670
     23 H          16.5977   70.5493   -9.3139 H       1  UNL1        0.1734
     24 O          22.6453   72.2638    0.1902 O.3     1  UNL1       -0.2703
     25 P          23.5710   72.1330    1.5013 P.3     1  UNL1        0.2208
     26 O          23.9161   70.5816    1.7614 O.3     1  UNL1       -0.4371
     27 O          24.8259   72.8892    1.2968 O.2     1  UNL1       -0.5170
     28 O          22.7858   72.7294    2.7743 O.3     1  UNL1       -0.2865
     29 C          22.6961   74.1288    3.0480 C.3     1  UNL1        0.2611
     30 C          23.4103   74.4388    4.3657 C.3     1  UNL1        0.1582
     31 C          22.7061   73.6959    5.5052 C.3     1  UNL1        0.1625
     32 C          21.2314   74.1069    5.5336 C.3     1  UNL1        0.1686
     33 C          20.6010   73.8095    4.1705 C.3     1  UNL1        0.1760
     34 O          23.3211   74.0376    6.7495 O.3     1  UNL1       -0.3801
     35 O          21.1303   75.5045    5.8125 O.3     1  UNL1       -0.3794
     36 O          21.3217   74.5062    3.1520 O.3     1  UNL1       -0.3263
     37 H          22.9251   73.6014    7.5164 H       1  UNL1        0.2105
     38 H          20.2217   75.8351    5.8449 H       1  UNL1        0.2105
     39 C          25.7886   74.9024    4.1079 C.2     1  UNL1        0.2231
     40 C          27.2227   74.4498    4.0219 C.3     1  UNL1        0.0946
     41 N          24.8050   73.9978    4.2819 N.am    1  UNL1       -0.2994
     42 O          25.5183   76.0820    4.0205 O.2     1  UNL1       -0.2751
     43 H          25.0205   73.0545    4.3508 H       1  UNL1        0.1496
     44 C          19.1428   74.2723    4.1714 C.3     1  UNL1        0.1693
     45 O          18.5055   73.8392    5.3750 O.3     1  UNL1       -0.3794
     46 H          17.5764   74.0980    5.4438 H       1  UNL1        0.2105
@<TRIPOS>BOND
     1    29    30    1
     2    30    41    1
     3    30    31    1
     4    31    34    1
     5    31    32    1
     6    32    35    1
     7    32    33    1
     8    33    36    1
     9    33    44    1
    10    39    40    1
    11    39    42    2
    12    39    41   am
    13    41    43    1
    14    29    28    1
    15    34    37    1
    16    35    38    1
    17    29    36    1
    18    44    45    1
    19    45    46    1
    20    15     6    1
    21    15    16   ar
    22    16    21    2
    23    16    17   ar
    24    17    23    1
    25    17    18   ar
    26    18    19   ar
    27    19    20   ar
    28    15    20   ar
    29    18    22    2
    30     6     7    1
    31     6    11    1
    32     7     9    1
    33     7     8    1
    34     8    13    1
    35     9    10    1
    36     9    12    1
    37    10     5    1
    38    10    11    1
    39    12    14    1
    40     5     4    1
    41     4     1    1
    42     1     2    1
    43     1    24    1
    44     1     3    2
    45    24    25    1
    46    28    25    1
    47    25    26    1
    48    25    27    2
@<TRIPOS>MOLECULE
UD2
 46 48 0 0 0
SMALL
GASTEIGER

@<TRIPOS>ATOM
      1 P          15.2964   70.3605   -1.9159 P.3     1  UNL1        0.2189
      2 O          16.1290   71.6516   -1.4353 O.3     1  UNL1       -0.4371
      3 O          15.6825   69.1907   -1.0966 O.2     1  UNL1       -0.5170
      4 O          13.7205   70.6424   -1.7400 O.3     1  UNL1       -0.3112
      5 C          12.9843   70.2439   -0.5822 C.3     1  UNL1        0.1811
      6 C          12.1932   67.0344    0.8356 C.3     1  UNL1        0.2383
      7 C          10.8229   67.6219    0.4122 C.3     1  UNL1        0.1895
      8 O           9.9145   66.5825    0.0430 O.3     1  UNL1       -0.3779
      9 C          11.2042   68.4843   -0.8159 C.3     1  UNL1        0.1713
     10 C          12.7139   68.7385   -0.6434 C.3     1  UNL1        0.1764
     11 O          13.1138   68.1196    0.5897 O.3     1  UNL1       -0.3308
     12 O          10.9522   67.7682   -2.0260 O.3     1  UNL1       -0.3794
     13 H           9.0428   66.8999   -0.2292 H       1  UNL1        0.2106
     14 H          10.0245   67.5299   -2.1571 H       1  UNL1        0.2105
     15 N          12.1844   66.6766    2.2558 N.ar    1  UNL1       -0.2551
     16 C          13.3429   66.6236    2.9369 C.ar    1  UNL1        0.3323
     17 N          13.3645   66.2974    4.2428 N.ar    1  UNL1       -0.2743
     18 C          12.2158   66.0189    4.8919 C.ar    1  UNL1        0.2626
     19 C          10.9889   66.0719    4.1875 C.ar    1  UNL1        0.0795
     20 C          10.9964   66.4059    2.8799 C.ar    1  UNL1        0.0869
     21 O          14.3863   66.8725    2.3644 O.2     1  UNL1       -0.2464
     22 O          12.2340   65.7239    6.0739 O.2     1  UNL1       -0.2670
     23 H          14.2087   66.2626    4.7185 H       1  UNL1        0.1734
     24 O          15.6175   70.0606   -3.4652 O.3     1  UNL1       -0.2703
     25 P          16.8653   69.4016   -4.2410 P.3     1  UNL1        0.2208
     26 O          17.7975   68.6170   -3.1879 O.3     1  UNL1       -0.4371
     27 O          16.3672   68.4526   -5.2606 O.2     1  UNL1       -0.5170
     28 O          17.7232   70.5599   -4.9588 O.3     1  UNL1       -0.2865
     29 C          19.0454   70.3528   -5.4589 C.3     1  UNL1        0.2611
     30 C          19.8449   71.6529   -5.3439 C.3     1  UNL1        0.1582
     31 C          19.1826   72.7278   -6.2113 C.3     1  UNL1        0.1625
     32 C          19.0987   72.2237   -7.6546 C.3     1  UNL1        0.1686
     33 C          18.3277   70.9013   -7.6805 C.3     1  UNL1        0.1760
     34 O          19.9638   73.9241   -6.1679 O.3     1  UNL1       -0.3801
     35 O          20.4168   72.0188   -8.1664 O.3     1  UNL1       -0.3794
     36 O          18.9788   69.9554   -6.8300 O.3     1  UNL1       -0.3263
     37 H          19.6018   74.6491   -6.6956 H       1  UNL1        0.2105
     38 H          20.4397   71.6979   -9.0788 H       1  UNL1        0.2105
     39 C          20.7772   71.5907   -3.0934 C.2     1  UNL1        0.2231
     40 C          20.7973   72.0437   -1.6571 C.3     1  UNL1        0.0946
     41 N          19.8636   72.0938   -3.9469 N.am    1  UNL1       -0.2994
     42 O          21.5838   70.7722   -3.4828 O.2     1  UNL1       -0.2751
     43 H          19.2179   72.7475   -3.6358 H       1  UNL1        0.1496
     44 C          18.2908   70.3606   -9.1111 C.3     1  UNL1        0.1693
     45 O          18.2577   71.4522  -10.0330 O.3     1  UNL1       -0.3794
     46 H          18.2332   71.1830  -10.9614 H       1  UNL1        0.2105
@<TRIPOS>BOND
     1    29    30    1
     2    30    41    1
     3    30    31    1
     4    31    34    1
     5    31    32    1
     6    32    35    1
     7    32    33    1
     8    33    36    1
     9    33    44    1
    10    39    40    1
    11    39    42    2
    12    39    41   am
    13    41    43    1
    14    29    28    1
    15    34    37    1
    16    35    38    1
    17    29    36    1
    18    44    45    1
    19    45    46    1
    20    15     6    1
    21    15    16   ar
    22    16    21    2
    23    16    17   ar
    24    17    23    1
    25    17    18   ar
    26    18    19   ar
    27    19    20   ar
    28    15    20   ar
    29    18    22    2
    30     6     7    1
    31     6    11    1
    32     7     9    1
    33     7     8    1
    34     8    13    1
    35     9    10    1
    36     9    12    1
    37    10     5    1
    38    10    11    1
    39    12    14    1
    40     5     4    1
    41     4     1    1
    42     1     2    1
    43     1    24    1
    44     1     3    2
    45    24    25    1
    46    28    25    1
    47    25    26    1
    48    25    27    2
@<TRIPOS>MOLECULE
UD2
 46 48 0 0 0
SMALL
GASTEIGER

@<TRIPOS>ATOM
      1 P          21.9279   72.3504   -6.1183 P.3     1  UNL1        0.2189
      2 O          22.9697   73.3150   -6.8770 O.3     1  UNL1       -0.4371
      3 O          20.7767   73.1465   -5.6388 O.2     1  UNL1       -0.5170
      4 O          21.4089   71.2152   -7.1359 O.3     1  UNL1       -0.3112
      5 C          20.5243   71.4919   -8.2233 C.3     1  UNL1        0.1811
      6 C          17.4587   70.1231   -6.9331 C.3     1  UNL1        0.2383
      7 C          17.0090   71.1136   -8.0370 C.3     1  UNL1        0.1895
      8 O          15.7942   70.6772   -8.6499 O.3     1  UNL1       -0.3779
      9 C          18.1887   71.0432   -9.0374 C.3     1  UNL1        0.1713
     10 C          19.3608   70.4976   -8.1996 C.3     1  UNL1        0.1764
     11 O          18.8852   70.3339   -6.8541 O.3     1  UNL1       -0.3308
     12 O          17.8812   70.1502  -10.1093 O.3     1  UNL1       -0.3794
     13 H          15.4719   71.2645   -9.3469 H       1  UNL1        0.2106
     14 H          17.1139   70.4144  -10.6346 H       1  UNL1        0.2105
     15 N          16.8174   70.4472   -5.6569 N.ar    1  UNL1       -0.2551
     16 C          16.4168   69.4554   -4.8415 C.ar    1  UNL1        0.3323
     17 N          15.8246   69.7242   -3.6629 N.ar    1  UNL1       -0.2743
     18 C          15.6247   71.0015   -3.2793 C.ar    1  UNL1        0.2626
     19 C          16.0423   72.0553   -4.1273 C.ar    1  UNL1        0.0795
     20 C          16.6372   71.7569   -5.3014 C.ar    1  UNL1        0.0869
     21 O          16.5908   68.2990   -5.1744 O.2     1  UNL1       -0.2464
     22 O          15.0891   71.2460   -2.2126 O.2     1  UNL1       -0.2670
     23 H          15.5407   68.9971   -3.0875 H       1  UNL1        0.1734
     24 O          22.6579   71.6525   -4.8639 O.3     1  UNL1       -0.2703
     25 P          23.5376   72.2048   -3.6335 P.3     1  UNL1        0.2208
     26 O          24.2462   70.9682   -2.8834 O.3     1  UNL1       -0.4371
     27 O          24.5728   73.1304   -4.1431 O.2     1  UNL1       -0.5170
     28 O          22.5822   72.9847   -2.5983 O.3     1  UNL1       -0.2865
     29 C          21.3390   72.4544   -2.1352 C.3     1  UNL1        0.2611
     30 C          20.4092   73.6035   -1.7382 C.3     1  UNL1        0.1582
     31 C          21.0414   74.3842   -0.5818 C.3     1  UNL1        0.1625
     32 C          21.3085   73.4252    0.5816 C.3     1  UNL1        0.1686
     33 C          22.2040   72.2827    0.0950 C.3     1  UNL1        0.1760
     34 O          20.1466   75.4142   -0.1558 O.3     1  UNL1       -0.3801
     35 O          20.0703   72.8933    1.0561 O.3     1  UNL1       -0.3794
     36 O          21.5718   71.6175   -1.0004 O.3     1  UNL1       -0.3263
     37 H          20.4838   75.9501    0.5752 H       1  UNL1        0.2105
     38 H          20.1641   72.2756    1.7948 H       1  UNL1        0.2105
     39 C          21.0260   75.5606   -3.0524 C.2     1  UNL1        0.2231
     40 C          20.8294   76.4783   -4.2304 C.3     1  UNL1        0.0946
     41 N          20.2172   74.4959   -2.8842 N.am    1  UNL1       -0.2994
     42 O          21.9130   75.7796   -2.2539 O.2     1  UNL1       -0.2751
     43 H          19.5073   74.3209   -3.5218 H       1  UNL1        0.1496
     44 C          22.4268   71.2883    1.2360 C.3     1  UNL1        0.1693
     45 O          21.5198   70.1926    1.0979 O.3     1  UNL1       -0.3794
     46 H          21.6047   69.5214    1.7888 H       1  UNL1        0.2105
@<TRIPOS>BOND
     1    29    30    1
     2    30    41    1
     3    30    31    1
     4    31    34    1
     5    31    32    1
     6    32    35    1
     7    32    33    1
     8    33    36    1
     9    33    44    1
    10    39    40    1
    11    39    42    2
    12    39    41   am
    13    41    43    1
    14    29    28    1
    15    34    37    1
    16    35    38    1
    17    29    36    1
    18    44    45    1
    19    45    46    1
    20    15     6    1
    21    15    16   ar
    22    16    21    2
    23    16    17   ar
    24    17    23    1
    25    17    18   ar
    26    18    19   ar
    27    19    20   ar
    28    15    20   ar
    29    18    22    2
    30     6     7    1
    31     6    11    1
    32     7     9    1
    33     7     8    1
    34     8    13    1
    35     9    10    1
    36     9    12    1
    37    10     5    1
    38    10    11    1
    39    12    14    1
    40     5     4    1
    41     4     1    1
    42     1     2    1
    43     1    24    1
    44     1     3    2
    45    24    25    1
    46    28    25    1
    47    25    26    1
    48    25    27    2
@<TRIPOS>MOLECULE
UD2
 46 48 0 0 0
SMALL
GASTEIGER

@<TRIPOS>ATOM
      1 P          19.9389   74.2310   -1.3673 P.3     1  UNL1        0.2189
      2 O          18.6783   74.8451   -0.5766 O.3     1  UNL1       -0.4371
      3 O          20.0098   74.8244   -2.7207 O.2     1  UNL1       -0.5170
      4 O          21.2927   74.5671   -0.5623 O.3     1  UNL1       -0.3112
      5 C          21.3375   74.7061    0.8590 C.3     1  UNL1        0.1811
      6 C          23.3092   72.1771    2.4878 C.3     1  UNL1        0.2383
      7 C          22.6497   72.9647    3.6484 C.3     1  UNL1        0.1895
      8 O          22.4215   72.1164    4.7754 O.3     1  UNL1       -0.3779
      9 C          21.3102   73.4152    3.0159 C.3     1  UNL1        0.1713
     10 C          21.5641   73.3340    1.4985 C.3     1  UNL1        0.1764
     11 O          22.9298   72.9286    1.3144 O.3     1  UNL1       -0.3308
     12 O          20.2562   72.5286    3.3952 O.3     1  UNL1       -0.3794
     13 H          22.0108   72.5636    5.5278 H       1  UNL1        0.2106
     14 H          20.0927   72.4953    4.3474 H       1  UNL1        0.2105
     15 N          24.7657   72.1576    2.6399 N.ar    1  UNL1       -0.2551
     16 C          25.4469   71.0255    2.3883 C.ar    1  UNL1        0.3323
     17 N          26.7858   70.9788    2.5200 N.ar    1  UNL1       -0.2743
     18 C          27.4684   72.0755    2.9073 C.ar    1  UNL1        0.2626
     19 C          26.7642   73.2742    3.1745 C.ar    1  UNL1        0.0795
     20 C          25.4224   73.2936    3.0302 C.ar    1  UNL1        0.0869
     21 O          24.8445   70.0291    2.0381 O.2     1  UNL1       -0.2464
     22 O          28.6802   72.0346    3.0265 O.2     1  UNL1       -0.2670
     23 H          27.2613   70.1541    2.3358 H       1  UNL1        0.1734
     24 O          19.7703   72.6341   -1.4893 O.3     1  UNL1       -0.2703
     25 P          18.7340   71.6754   -2.2638 P.3     1  UNL1        0.2208
     26 O          19.0625   70.1379   -1.9148 O.3     1  UNL1       -0.4371
     27 O          17.3538   71.9935   -1.8371 O.2     1  UNL1       -0.5170
     28 O          18.8723   71.9072   -3.8512 O.3     1  UNL1       -0.2865
     29 C          19.7329   71.1240   -4.6802 C.3     1  UNL1        0.2611
     30 C          20.5589   72.0488   -5.5775 C.3     1  UNL1        0.1582
     31 C          19.6152   72.8319   -6.4954 C.3     1  UNL1        0.1625
     32 C          18.7692   71.8436   -7.3028 C.3     1  UNL1        0.1686
     33 C          18.0119   70.9265   -6.3387 C.3     1  UNL1        0.1760
     34 O          20.3822   73.6440   -7.3874 O.3     1  UNL1       -0.3801
     35 O          19.6203   71.0588   -8.1400 O.3     1  UNL1       -0.3794
     36 O          18.9456   70.2515   -5.4934 O.3     1  UNL1       -0.3263
     37 H          19.8475   74.1692   -7.9985 H       1  UNL1        0.2105
     38 H          19.1503   70.4090   -8.6810 H       1  UNL1        0.2105
     39 C          22.6563   73.0876   -4.8994 C.2     1  UNL1        0.2231
     40 C          23.4408   74.0489   -4.0456 C.3     1  UNL1        0.0946
     41 N          21.3214   72.9839   -4.7464 N.am    1  UNL1       -0.2994
     42 O          23.2260   72.4058   -5.7257 O.2     1  UNL1       -0.2751
     43 H          20.8656   73.5281   -4.0853 H       1  UNL1        0.1496
     44 C          17.2103   69.8974   -7.1379 C.3     1  UNL1        0.1693
     45 O          15.9592   69.6592   -6.4896 O.3     1  UNL1       -0.3794
     46 H          15.3973   69.0154   -6.9421 H       1  UNL1        0.2105
@<TRIPOS>BOND
     1    29    30    1
     2    30    41    1
     3    30    31    1
     4    31    34    1
     5    31    32    1
     6    32    35    1
     7    32    33    1
     8    33    36    1
     9    33    44    1
    10    39    40    1
    11    39    42    2
    12    39    41   am
    13    41    43    1
    14    29    28    1
    15    34    37    1
    16    35    38    1
    17    29    36    1
    18    44    45    1
    19    45    46    1
    20    15     6    1
    21    15    16   ar
    22    16    21    2
    23    16    17   ar
    24    17    23    1
    25    17    18   ar
    26    18    19   ar
    27    19    20   ar
    28    15    20   ar
    29    18    22    2
    30     6     7    1
    31     6    11    1
    32     7     9    1
    33     7     8    1
    34     8    13    1
    35     9    10    1
    36     9    12    1
    37    10     5    1
    38    10    11    1
    39    12    14    1
    40     5     4    1
    41     4     1    1
    42     1     2    1
    43     1    24    1
    44     1     3    2
    45    24    25    1
    46    28    25    1
    47    25    26    1
    48    25    27    2
@<TRIPOS>MOLECULE
UD2
 46 48 0 0 0
SMALL
GASTEIGER

@<TRIPOS>ATOM
      1 P          23.0007   71.7719   -3.4408 P.3     1  UNL1        0.2189
      2 O          23.6280   72.5766   -4.6859 O.3     1  UNL1       -0.4371
      3 O          23.9021   70.6600   -3.0667 O.2     1  UNL1       -0.5170
      4 O          22.8308   72.7697   -2.1880 O.3     1  UNL1       -0.3112
      5 C          22.4350   72.3256   -0.8890 C.3     1  UNL1        0.1811
      6 C          24.0498   72.5730    2.3154 C.3     1  UNL1        0.2383
      7 C          23.8314   71.0531    2.1054 C.3     1  UNL1        0.1895
      8 O          24.8596   70.2965    2.7475 O.3     1  UNL1       -0.3779
      9 C          23.9277   70.9203    0.5657 C.3     1  UNL1        0.1713
     10 C          23.6462   72.3433    0.0467 C.3     1  UNL1        0.1764
     11 O          23.3691   73.1684    1.1894 O.3     1  UNL1       -0.3308
     12 O          25.2374   70.4976    0.1824 O.3     1  UNL1       -0.3794
     13 H          24.7665   69.3397    2.6452 H       1  UNL1        0.2106
     14 H          25.4902   69.6323    0.5315 H       1  UNL1        0.2105
     15 N          23.4452   73.0118    3.5751 N.ar    1  UNL1       -0.2551
     16 C          22.1675   72.6926    3.8478 C.ar    1  UNL1        0.3323
     17 N          21.5862   73.0827    4.9977 N.ar    1  UNL1       -0.2743
     18 C          22.2829   73.8030    5.9001 C.ar    1  UNL1        0.2626
     19 C          23.6291   74.1451    5.6265 C.ar    1  UNL1        0.0795
     20 C          24.1878   73.7372    4.4676 C.ar    1  UNL1        0.0869
     21 O          21.5273   72.0434    3.0434 O.2     1  UNL1       -0.2464
     22 O          21.7581   74.1563    6.9414 O.2     1  UNL1       -0.2670
     23 H          20.6636   72.8451    5.1780 H       1  UNL1        0.1734
     24 O          21.5611   71.1805   -3.8541 O.3     1  UNL1       -0.2703
     25 P          20.0624   71.7691   -3.8316 P.3     1  UNL1        0.2208
     26 O          19.3980   71.4893   -2.3915 O.3     1  UNL1       -0.4371
     27 O          20.1008   73.2266   -4.0817 O.2     1  UNL1       -0.5170
     28 O          19.1866   71.0506   -4.9759 O.3     1  UNL1       -0.2865
     29 C          18.2090   71.7408   -5.7564 C.3     1  UNL1        0.2611
     30 C          16.8783   70.9872   -5.6920 C.3     1  UNL1        0.1582
     31 C          17.0607   69.5937   -6.3013 C.3     1  UNL1        0.1625
     32 C          17.5767   69.7389   -7.7355 C.3     1  UNL1        0.1686
     33 C          18.8808   70.5408   -7.7211 C.3     1  UNL1        0.1760
     34 O          15.8056   68.9097   -6.3122 O.3     1  UNL1       -0.3801
     35 O          16.6033   70.4233   -8.5264 O.3     1  UNL1       -0.3794
     36 O          18.6488   71.8135   -7.1142 O.3     1  UNL1       -0.3263
     37 H          15.8471   68.0184   -6.6850 H       1  UNL1        0.2105
     38 H          16.8646   70.5515   -9.4490 H       1  UNL1        0.2105
     39 C          16.7533   69.7438   -3.6001 C.2     1  UNL1        0.2231
     40 C          16.3192   69.6116   -2.1639 C.3     1  UNL1        0.0946
     41 N          16.4556   70.8594   -4.2951 N.am    1  UNL1       -0.2994
     42 O          17.3713   68.8455   -4.1323 O.2     1  UNL1       -0.2751
     43 H          15.9606   71.5774   -3.8703 H       1  UNL1        0.1496
     44 C          19.3716   70.7416   -9.1561 C.3     1  UNL1        0.1693
     45 O          18.4216   71.5266   -9.8798 O.3     1  UNL1       -0.3794
     46 H          18.6683   71.6940  -10.7997 H       1  UNL1        0.2105
@<TRIPOS>BOND
     1    29    30    1
     2    30    41    1
     3    30    31    1
     4    31    34    1
     5    31    32    1
     6    32    35    1
     7    32    33    1
     8    33    36    1
     9    33    44    1
    10    39    40    1
    11    39    42    2
    12    39    41   am
    13    41    43    1
    14    29    28    1
    15    34    37    1
    16    35    38    1
    17    29    36    1
    18    44    45    1
    19    45    46    1
    20    15     6    1
    21    15    16   ar
    22    16    21    2
    23    16    17   ar
    24    17    23    1
    25    17    18   ar
    26    18    19   ar
    27    19    20   ar
    28    15    20   ar
    29    18    22    2
    30     6     7    1
    31     6    11    1
    32     7     9    1
    33     7     8    1
    34     8    13    1
    35     9    10    1
    36     9    12    1
    37    10     5    1
    38    10    11    1
    39    12    14    1
    40     5     4    1
    41     4     1    1
    42     1     2    1
    43     1    24    1
    44     1     3    2
    45    24    25    1
    46    28    25    1
    47    25    26    1
    48    25    27    2
