@<TRIPOS>MOLECULE
UD1
 46 48 0 0 0
SMALL
GASTEIGER

@<TRIPOS>ATOM
      1 P          20.9459   71.8862   -2.0491 P.3     1  UNL1        0.2189
      2 O          21.4804   73.2636   -1.9742 O.2     1  UNL1       -0.5170
      3 O          22.0892   70.8960   -2.6014 O.3     1  UNL1       -0.4371
      4 O          19.6825   71.8549   -3.0469 O.3     1  UNL1       -0.3112
      5 C          18.6428   71.1412   -2.3761 C.3     1  UNL1        0.1811
      6 C          17.0125   70.6496   -5.5428 C.3     1  UNL1        0.2383
      7 C          17.0637   69.2368   -4.9090 C.3     1  UNL1        0.1895
      8 O          15.9491   68.4482   -5.3275 O.3     1  UNL1       -0.3779
      9 C          16.9779   69.5562   -3.3939 C.3     1  UNL1        0.1713
     10 C          17.4258   71.0273   -3.2955 C.3     1  UNL1        0.1764
     11 O          17.7728   71.4604   -4.6218 O.3     1  UNL1       -0.3308
     12 O          15.6364   69.4026   -2.9253 O.3     1  UNL1       -0.3794
     13 H          16.0405   67.5852   -4.9004 H       1  UNL1        0.2106
     14 H          15.3949   68.4777   -3.0684 H       1  UNL1        0.2105
     15 N          17.6370   70.6482   -6.8662 N.ar    1  UNL1       -0.2551
     16 C          16.8753   70.4879   -7.9622 C.ar    1  UNL1        0.3323
     17 N          17.4222   70.4865   -9.1923 N.ar    1  UNL1       -0.2743
     18 C          18.7534   70.6376   -9.3442 C.ar    1  UNL1        0.2626
     19 C          19.5678   70.8012   -8.1985 C.ar    1  UNL1        0.0795
     20 C          18.9925   70.8042   -6.9769 C.ar    1  UNL1        0.0869
     21 O          15.6731   70.3505   -7.8415 O.2     1  UNL1       -0.2464
     22 O          19.2495   70.6316  -10.4556 O.2     1  UNL1       -0.2670
     23 H          16.8570   70.3744   -9.9722 H       1  UNL1        0.1734
     24 O          20.4838   71.4093   -0.5835 O.3     1  UNL1       -0.2703
     25 P          21.8260   71.1356    0.2610 P.3     1  UNL1        0.2208
     26 O          22.9805   71.0544   -0.6606 O.2     1  UNL1       -0.5170
     27 O          21.6821   69.7473    1.0635 O.3     1  UNL1       -0.4371
     28 O          22.0578   72.3368    1.3068 O.3     1  UNL1       -0.2865
     29 C          22.1758   71.7428    2.6008 C.3     1  UNL1        0.2611
     30 C          21.8047   72.7756    3.6664 C.3     1  UNL1        0.1582
     31 C          22.7381   73.9848    3.5390 C.3     1  UNL1        0.1625
     32 C          24.1882   73.4917    3.5859 C.3     1  UNL1        0.1686
     33 C          24.3802   72.4068    2.5241 C.3     1  UNL1        0.1760
     34 O          22.5010   74.8887    4.6198 O.3     1  UNL1       -0.3801
     35 O          25.0726   74.5825    3.3222 O.3     1  UNL1       -0.3794
     36 O          23.5178   71.3039    2.8002 O.3     1  UNL1       -0.3263
     37 H          23.1075   75.6325    4.5001 H       1  UNL1        0.2105
     38 H          25.9725   74.2285    3.3605 H       1  UNL1        0.2105
     39 C          20.1464   74.2946    2.7297 C.2     1  UNL1        0.2231
     40 C          18.7187   74.7352    2.5301 C.3     1  UNL1        0.0946
     41 N          20.4179   73.2038    3.4718 N.am    1  UNL1       -0.2994
     42 O          21.0513   74.9226    2.2227 O.2     1  UNL1       -0.2751
     43 H          19.6940   72.7011    3.8779 H       1  UNL1        0.1496
     44 C          25.8341   71.9304    2.5407 C.3     1  UNL1        0.1693
     45 O          25.9652   70.7705    1.7163 O.3     1  UNL1       -0.3794
     46 H          26.8935   70.5034    1.7547 H       1  UNL1        0.2105
@<TRIPOS>BOND
     1    29    30    1
     2    29    28    1
     3    29    36    1
     4    30    31    1
     5    30    41    1
     6    31    32    1
     7    31    34    1
     8    32    33    1
     9    32    35    1
    10    33    44    1
    11    33    36    1
    12    44    45    1
    13    39    40    1
    14    39    41   am
    15    39    42    2
    16    41    43    1
    17    28    25    1
    18    34    37    1
    19    35    38    1
    20    45    46    1
    21    15    16   ar
    22    15    20   ar
    23    15     6    1
    24    16    17   ar
    25    16    21    2
    26    17    18   ar
    27    17    23    1
    28    18    19   ar
    29    18    22    2
    30    19    20   ar
    31     6     7    1
    32     6    11    1
    33     7     8    1
    34     7     9    1
    35     8    13    1
    36     9    10    1
    37     9    12    1
    38    10    11    1
    39    10     5    1
    40    12    14    1
    41     5     4    1
    42     4     1    1
    43     1     2    2
    44     1     3    1
    45     1    24    1
    46    24    25    1
    47    25    26    2
    48    25    27    1
@<TRIPOS>MOLECULE
UD1
 46 48 0 0 0
SMALL
GASTEIGER

@<TRIPOS>ATOM
      1 P          22.5929   71.6392   -3.0352 P.3     1  UNL1        0.2189
      2 O          24.0172   71.4174   -3.3682 O.2     1  UNL1       -0.5170
      3 O          21.7773   70.2637   -3.2228 O.3     1  UNL1       -0.4371
      4 O          21.9820   72.7620   -4.0144 O.3     1  UNL1       -0.3112
      5 C          22.7303   72.7028   -5.2297 C.3     1  UNL1        0.1811
      6 C          19.6624   71.7776   -6.8605 C.3     1  UNL1        0.2383
      7 C          19.4047   73.2114   -6.3334 C.3     1  UNL1        0.1895
      8 O          18.4936   73.9117   -7.1812 O.3     1  UNL1       -0.3779
      9 C          20.8198   73.8424   -6.4008 C.3     1  UNL1        0.1713
     10 C          21.7701   72.6295   -6.4179 C.3     1  UNL1        0.1764
     11 O          20.9588   71.4467   -6.3187 O.3     1  UNL1       -0.3308
     12 O          20.9658   74.6175   -7.5927 O.3     1  UNL1       -0.3794
     13 H          18.3760   74.7924   -6.7993 H       1  UNL1        0.2106
     14 H          20.3061   75.3225   -7.5499 H       1  UNL1        0.2105
     15 N          18.6440   70.8511   -6.3648 N.ar    1  UNL1       -0.2551
     16 C          17.6182   70.5008   -7.1600 C.ar    1  UNL1        0.3323
     17 N          16.6692   69.6475   -6.7318 N.ar    1  UNL1       -0.2743
     18 C          16.7286   69.1345   -5.4863 C.ar    1  UNL1        0.2626
     19 C          17.7998   69.4994   -4.6365 C.ar    1  UNL1        0.0795
     20 C          18.7410   70.3531   -5.0934 C.ar    1  UNL1        0.0869
     21 O          17.5508   70.9550   -8.2860 O.2     1  UNL1       -0.2464
     22 O          15.8685   68.3666   -5.0964 O.2     1  UNL1       -0.2670
     23 H          15.9389   69.4021   -7.3205 H       1  UNL1        0.1734
     24 O          22.4693   72.1337   -1.5091 O.3     1  UNL1       -0.2703
     25 P          20.9742   72.6989   -1.3232 P.3     1  UNL1        0.2208
     26 O          20.0166   71.7887   -1.9889 O.2     1  UNL1       -0.5170
     27 O          20.8678   74.1640   -1.9823 O.3     1  UNL1       -0.4371
     28 O          20.6252   72.7911    0.2453 O.3     1  UNL1       -0.2865
     29 C          21.4376   73.8324    0.7903 C.3     1  UNL1        0.2611
     30 C          22.2094   73.2923    1.9955 C.3     1  UNL1        0.1582
     31 C          21.2122   72.7807    3.0411 C.3     1  UNL1        0.1625
     32 C          20.2135   73.8998    3.3546 C.3     1  UNL1        0.1686
     33 C          19.5898   74.3920    2.0469 C.3     1  UNL1        0.1760
     34 O          21.9125   72.4122    4.2307 O.3     1  UNL1       -0.3801
     35 O          19.1890   73.3988    4.2154 O.3     1  UNL1       -0.3794
     36 O          20.6072   74.9183    1.1957 O.3     1  UNL1       -0.3263
     37 H          21.2487   72.0968    4.8594 H       1  UNL1        0.2105
     38 H          18.5830   74.1337    4.3863 H       1  UNL1        0.2105
     39 C          24.3301   72.0951    2.0573 C.2     1  UNL1        0.2231
     40 C          25.2250   70.9648    1.6169 C.3     1  UNL1        0.0946
     41 N          23.0790   72.1942    1.5684 N.am    1  UNL1       -0.2994
     42 O          24.7367   72.9161    2.8515 O.2     1  UNL1       -0.2751
     43 H          22.7534   71.5374    0.9326 H       1  UNL1        0.1496
     44 C          18.5666   75.4879    2.3520 C.3     1  UNL1        0.1693
     45 O          18.5856   76.4622    1.3068 O.3     1  UNL1       -0.3794
     46 H          17.9287   77.1330    1.5376 H       1  UNL1        0.2105
@<TRIPOS>BOND
     1    29    30    1
     2    29    28    1
     3    29    36    1
     4    30    31    1
     5    30    41    1
     6    31    32    1
     7    31    34    1
     8    32    33    1
     9    32    35    1
    10    33    44    1
    11    33    36    1
    12    44    45    1
    13    39    40    1
    14    39    41   am
    15    39    42    2
    16    41    43    1
    17    28    25    1
    18    34    37    1
    19    35    38    1
    20    45    46    1
    21    15    16   ar
    22    15    20   ar
    23    15     6    1
    24    16    17   ar
    25    16    21    2
    26    17    18   ar
    27    17    23    1
    28    18    19   ar
    29    18    22    2
    30    19    20   ar
    31     6     7    1
    32     6    11    1
    33     7     8    1
    34     7     9    1
    35     8    13    1
    36     9    10    1
    37     9    12    1
    38    10    11    1
    39    10     5    1
    40    12    14    1
    41     5     4    1
    42     4     1    1
    43     1     2    2
    44     1     3    1
    45     1    24    1
    46    24    25    1
    47    25    26    2
    48    25    27    1
@<TRIPOS>MOLECULE
UD1
 46 48 0 0 0
SMALL
GASTEIGER

@<TRIPOS>ATOM
      1 P          20.6686   71.2144   -3.1855 P.3     1  UNL1        0.2189
      2 O          20.1953   72.5782   -2.8618 O.2     1  UNL1       -0.5170
      3 O          21.2509   71.1905   -4.6864 O.3     1  UNL1       -0.4371
      4 O          19.4404   70.1794   -3.0709 O.3     1  UNL1       -0.3112
      5 C          18.3347   70.9071   -2.5340 C.3     1  UNL1        0.1811
      6 C          16.8443   70.5389   -5.7852 C.3     1  UNL1        0.2383
      7 C          16.8345   69.1088   -5.1895 C.3     1  UNL1        0.1895
      8 O          15.7236   68.3580   -5.6809 O.3     1  UNL1       -0.3779
      9 C          16.6847   69.3894   -3.6716 C.3     1  UNL1        0.1713
     10 C          17.1599   70.8464   -3.5115 C.3     1  UNL1        0.1764
     11 O          17.5783   71.3067   -4.8078 O.3     1  UNL1       -0.3308
     12 O          15.3196   69.2546   -3.2702 O.3     1  UNL1       -0.3794
     13 H          15.7757   67.4819   -5.2744 H       1  UNL1        0.2106
     14 H          15.0647   68.3398   -3.4500 H       1  UNL1        0.2105
     15 N          17.5301   70.5584   -7.0778 N.ar    1  UNL1       -0.2551
     16 C          16.8116   70.5317   -8.2137 C.ar    1  UNL1        0.3323
     17 N          17.4156   70.5527   -9.4166 N.ar    1  UNL1       -0.2743
     18 C          18.7607   70.5918   -9.5009 C.ar    1  UNL1        0.2626
     19 C          19.5295   70.6143   -8.3130 C.ar    1  UNL1        0.0795
     20 C          18.8978   70.5978   -7.1197 C.ar    1  UNL1        0.0869
     21 O          15.5976   70.4964   -8.1541 O.2     1  UNL1       -0.2464
     22 O          19.3080   70.6060  -10.5880 O.2     1  UNL1       -0.2670
     23 H          16.8815   70.5377  -10.2258 H       1  UNL1        0.1734
     24 O          21.8267   70.7890   -2.1527 O.3     1  UNL1       -0.2703
     25 P          23.0863   71.7461   -2.4466 P.3     1  UNL1        0.2208
     26 O          22.7024   72.7763   -3.4367 O.2     1  UNL1       -0.5170
     27 O          24.3032   70.8686   -3.0308 O.3     1  UNL1       -0.4371
     28 O          23.5492   72.4607   -1.0808 O.3     1  UNL1       -0.2865
     29 C          22.7110   71.9516   -0.0419 C.3     1  UNL1        0.2611
     30 C          22.0649   73.1204    0.7042 C.3     1  UNL1        0.1582
     31 C          23.1663   74.0135    1.2864 C.3     1  UNL1        0.1625
     32 C          24.1088   73.1449    2.1263 C.3     1  UNL1        0.1686
     33 C          24.6031   71.9758    1.2718 C.3     1  UNL1        0.1760
     34 O          22.5790   75.0229    2.1096 O.3     1  UNL1       -0.3801
     35 O          25.2232   73.9282    2.5576 O.3     1  UNL1       -0.3794
     36 O          23.4947   71.1757    0.8620 O.3     1  UNL1       -0.3263
     37 H          23.3056   75.5603    2.4538 H       1  UNL1        0.2105
     38 H          25.7900   73.3438    3.0809 H       1  UNL1        0.2105
     39 C          21.7495   74.9941   -0.8203 C.2     1  UNL1        0.2231
     40 C          20.9013   75.7952   -1.7748 C.3     1  UNL1        0.0946
     41 N          21.2415   73.8986   -0.2235 N.am    1  UNL1       -0.2994
     42 O          22.8895   75.3362   -0.5888 O.2     1  UNL1       -0.2751
     43 H          20.3291   73.6248   -0.4084 H       1  UNL1        0.1496
     44 C          25.5709   71.1200    2.0916 C.3     1  UNL1        0.1693
     45 O          24.8674   70.0103    2.6535 O.3     1  UNL1       -0.3794
     46 H          25.5117   69.4984    3.1609 H       1  UNL1        0.2105
@<TRIPOS>BOND
     1    29    30    1
     2    29    28    1
     3    29    36    1
     4    30    31    1
     5    30    41    1
     6    31    32    1
     7    31    34    1
     8    32    33    1
     9    32    35    1
    10    33    44    1
    11    33    36    1
    12    44    45    1
    13    39    40    1
    14    39    41   am
    15    39    42    2
    16    41    43    1
    17    28    25    1
    18    34    37    1
    19    35    38    1
    20    45    46    1
    21    15    16   ar
    22    15    20   ar
    23    15     6    1
    24    16    17   ar
    25    16    21    2
    26    17    18   ar
    27    17    23    1
    28    18    19   ar
    29    18    22    2
    30    19    20   ar
    31     6     7    1
    32     6    11    1
    33     7     8    1
    34     7     9    1
    35     8    13    1
    36     9    10    1
    37     9    12    1
    38    10    11    1
    39    10     5    1
    40    12    14    1
    41     5     4    1
    42     4     1    1
    43     1     2    2
    44     1     3    1
    45     1    24    1
    46    24    25    1
    47    25    26    2
    48    25    27    1
@<TRIPOS>MOLECULE
UD1
 46 48 0 0 0
SMALL
GASTEIGER

@<TRIPOS>ATOM
      1 P          16.3958   69.6232   -2.8005 P.3     1  UNL1        0.2189
      2 O          16.0479   69.0607   -4.1238 O.2     1  UNL1       -0.5170
      3 O          17.1414   68.5007   -1.9193 O.3     1  UNL1       -0.4371
      4 O          15.0519   70.0907   -2.0466 O.3     1  UNL1       -0.3112
      5 C          14.8908   69.2315   -0.9169 C.3     1  UNL1        0.1811
      6 C          12.1037   68.1154    1.0614 C.3     1  UNL1        0.2383
      7 C          12.4272   69.5283    1.6087 C.3     1  UNL1        0.1895
      8 O          11.2478   70.1709    2.0939 O.3     1  UNL1       -0.3779
      9 C          12.9713   70.2491    0.3479 C.3     1  UNL1        0.1713
     10 C          13.4041   69.0999   -0.5829 C.3     1  UNL1        0.1764
     11 O          13.1677   67.8670    0.1181 O.3     1  UNL1       -0.3308
     12 O          11.9448   71.0352   -0.2611 O.3     1  UNL1       -0.3794
     13 H          11.5166   71.0412    2.4191 H       1  UNL1        0.2106
     14 H          11.6756   71.6964    0.3905 H       1  UNL1        0.2105
     15 N          12.1260   67.1240    2.1375 N.ar    1  UNL1       -0.2551
     16 C          13.3018   66.6371    2.5707 C.ar    1  UNL1        0.3323
     17 N          13.3526   65.7272    3.5615 N.ar    1  UNL1       -0.2743
     18 C          12.2158   65.2803    4.1325 C.ar    1  UNL1        0.2626
     19 C          10.9707   65.7800    3.6820 C.ar    1  UNL1        0.0795
     20 C          10.9490   66.6961    2.6902 C.ar    1  UNL1        0.0869
     21 O          14.3357   67.0304    2.0657 O.2     1  UNL1       -0.2464
     22 O          12.2602   64.4542    5.0252 O.2     1  UNL1       -0.2670
     23 H          14.2098   65.3904    3.8647 H       1  UNL1        0.1734
     24 O          17.3699   70.8890   -2.9946 O.3     1  UNL1       -0.2703
     25 P          18.8575   70.3058   -3.1856 P.3     1  UNL1        0.2208
     26 O          18.7814   68.8966   -3.6296 O.2     1  UNL1       -0.5170
     27 O          19.6495   70.3848   -1.7861 O.3     1  UNL1       -0.4371
     28 O          19.6382   71.1756   -4.2922 O.3     1  UNL1       -0.2865
     29 C          20.8096   70.4389   -4.6476 C.3     1  UNL1        0.2611
     30 C          22.0314   71.3538   -4.5474 C.3     1  UNL1        0.1582
     31 C          21.8395   72.5508   -5.4855 C.3     1  UNL1        0.1625
     32 C          21.5311   72.0267   -6.8920 C.3     1  UNL1        0.1686
     33 C          20.3449   71.0631   -6.8158 C.3     1  UNL1        0.1760
     34 O          23.0347   73.3333   -5.5139 O.3     1  UNL1       -0.3801
     35 O          21.2045   73.1221   -7.7493 O.3     1  UNL1       -0.3794
     36 O          20.6777   69.9538   -5.9821 O.3     1  UNL1       -0.3263
     37 H          22.8698   74.0735   -6.1141 H       1  UNL1        0.2105
     38 H          21.0171   72.7482   -8.6220 H       1  UNL1        0.2105
     39 C          23.2914   71.5416   -2.4710 C.2     1  UNL1        0.2231
     40 C          23.4398   72.0301   -1.0527 C.3     1  UNL1        0.0946
     41 N          22.1762   71.8286   -3.1697 N.am    1  UNL1       -0.2994
     42 O          24.1760   70.8895   -2.9833 O.2     1  UNL1       -0.2751
     43 H          21.4680   72.3503   -2.7599 H       1  UNL1        0.1496
     44 C          20.0080   70.5589   -8.2205 C.3     1  UNL1        0.1693
     45 O          19.6869   71.6689   -9.0613 O.3     1  UNL1       -0.3794
     46 H          19.4811   71.3083   -9.9344 H       1  UNL1        0.2105
@<TRIPOS>BOND
     1    29    30    1
     2    29    28    1
     3    29    36    1
     4    30    31    1
     5    30    41    1
     6    31    32    1
     7    31    34    1
     8    32    33    1
     9    32    35    1
    10    33    44    1
    11    33    36    1
    12    44    45    1
    13    39    40    1
    14    39    41   am
    15    39    42    2
    16    41    43    1
    17    28    25    1
    18    34    37    1
    19    35    38    1
    20    45    46    1
    21    15    16   ar
    22    15    20   ar
    23    15     6    1
    24    16    17   ar
    25    16    21    2
    26    17    18   ar
    27    17    23    1
    28    18    19   ar
    29    18    22    2
    30    19    20   ar
    31     6     7    1
    32     6    11    1
    33     7     8    1
    34     7     9    1
    35     8    13    1
    36     9    10    1
    37     9    12    1
    38    10    11    1
    39    10     5    1
    40    12    14    1
    41     5     4    1
    42     4     1    1
    43     1     2    2
    44     1     3    1
    45     1    24    1
    46    24    25    1
    47    25    26    2
    48    25    27    1
@<TRIPOS>MOLECULE
UD1
 46 48 0 0 0
SMALL
GASTEIGER

@<TRIPOS>ATOM
      1 P          20.9669   71.3453   -2.1615 P.3     1  UNL1        0.2189
      2 O          21.8634   70.4357   -2.9083 O.2     1  UNL1       -0.5170
      3 O          20.5686   70.6708   -0.7548 O.3     1  UNL1       -0.4371
      4 O          19.6337   71.6117   -3.0244 O.3     1  UNL1       -0.3112
      5 C          18.5865   70.8582   -2.4112 C.3     1  UNL1        0.1811
      6 C          16.9748   70.5345   -5.6089 C.3     1  UNL1        0.2383
      7 C          16.9837   69.0970   -5.0314 C.3     1  UNL1        0.1895
      8 O          15.8533   68.3548   -5.4904 O.3     1  UNL1       -0.3779
      9 C          16.8914   69.3585   -3.5055 C.3     1  UNL1        0.1713
     10 C          17.3759   70.8124   -3.3449 C.3     1  UNL1        0.1764
     11 O          17.7467   71.2884   -4.6500 O.3     1  UNL1       -0.3308
     12 O          15.5419   69.2214   -3.0551 O.3     1  UNL1       -0.3794
     13 H          15.9184   67.4735   -5.0972 H       1  UNL1        0.2106
     14 H          15.2782   68.3095   -3.2368 H       1  UNL1        0.2105
     15 N          17.6119   70.5692   -6.9259 N.ar    1  UNL1       -0.2551
     16 C          16.8566   70.4754   -8.0340 C.ar    1  UNL1        0.3323
     17 N          17.4152   70.5083   -9.2584 N.ar    1  UNL1       -0.2743
     18 C          18.7515   70.6275   -9.3926 C.ar    1  UNL1        0.2626
     19 C          19.5591   70.7212   -8.2342 C.ar    1  UNL1        0.0795
     20 C          18.9722   70.6909   -7.0185 C.ar    1  UNL1        0.0869
     21 O          15.6499   70.3675   -7.9293 O.2     1  UNL1       -0.2464
     22 O          19.2580   70.6526  -10.4991 O.2     1  UNL1       -0.2670
     23 H          16.8547   70.4442  -10.0471 H       1  UNL1        0.1734
     24 O          21.7206   72.7415   -1.8940 O.3     1  UNL1       -0.2703
     25 P          23.0676   72.3950   -1.0847 P.3     1  UNL1        0.2208
     26 O          24.0241   73.5160   -1.2163 O.2     1  UNL1       -0.5170
     27 O          23.7265   71.0549   -1.6866 O.3     1  UNL1       -0.4371
     28 O          22.7178   72.1678    0.4698 O.3     1  UNL1       -0.2865
     29 C          23.0408   73.3824    1.1492 C.3     1  UNL1        0.2611
     30 C          23.3778   73.0707    2.6083 C.3     1  UNL1        0.1582
     31 C          22.1738   72.3867    3.2658 C.3     1  UNL1        0.1625
     32 C          20.9360   73.2652    3.0558 C.3     1  UNL1        0.1686
     33 C          20.7815   73.5597    1.5622 C.3     1  UNL1        0.1760
     34 O          22.4192   72.2256    4.6641 O.3     1  UNL1       -0.3801
     35 O          19.7766   72.5789    3.5315 O.3     1  UNL1       -0.3794
     36 O          21.9259   74.2695    1.0898 O.3     1  UNL1       -0.3263
     37 H          21.6389   71.7924    5.0366 H       1  UNL1        0.2105
     38 H          19.0222   73.1658    3.3797 H       1  UNL1        0.2105
     39 C          25.7827   72.6945    2.7041 C.2     1  UNL1        0.2231
     40 C          26.9774   71.7770    2.7604 C.3     1  UNL1        0.0946
     41 N          24.5387   72.1798    2.6635 N.am    1  UNL1       -0.2994
     42 O          25.9413   73.8966    2.6948 O.2     1  UNL1       -0.2751
     43 H          24.4114   71.2179    2.6707 H       1  UNL1        0.1496
     44 C          19.5292   74.4099    1.3383 C.3     1  UNL1        0.1693
     45 O          19.2276   75.1377    2.5305 O.3     1  UNL1       -0.3794
     46 H          18.4341   75.6587    2.3471 H       1  UNL1        0.2105
@<TRIPOS>BOND
     1    29    30    1
     2    29    28    1
     3    29    36    1
     4    30    31    1
     5    30    41    1
     6    31    32    1
     7    31    34    1
     8    32    33    1
     9    32    35    1
    10    33    44    1
    11    33    36    1
    12    44    45    1
    13    39    40    1
    14    39    41   am
    15    39    42    2
    16    41    43    1
    17    28    25    1
    18    34    37    1
    19    35    38    1
    20    45    46    1
    21    15    16   ar
    22    15    20   ar
    23    15     6    1
    24    16    17   ar
    25    16    21    2
    26    17    18   ar
    27    17    23    1
    28    18    19   ar
    29    18    22    2
    30    19    20   ar
    31     6     7    1
    32     6    11    1
    33     7     8    1
    34     7     9    1
    35     8    13    1
    36     9    10    1
    37     9    12    1
    38    10    11    1
    39    10     5    1
    40    12    14    1
    41     5     4    1
    42     4     1    1
    43     1     2    2
    44     1     3    1
    45     1    24    1
    46    24    25    1
    47    25    26    2
    48    25    27    1
@<TRIPOS>MOLECULE
UD1
 46 48 0 0 0
SMALL
GASTEIGER

@<TRIPOS>ATOM
      1 P          23.4695   72.2246   -3.2993 P.3     1  UNL1        0.2189
      2 O          24.3702   73.1051   -4.0753 O.2     1  UNL1       -0.5170
      3 O          24.2000   70.8158   -3.0267 O.3     1  UNL1       -0.4371
      4 O          22.1156   71.9733   -4.1340 O.3     1  UNL1       -0.3112
      5 C          22.4311   72.1914   -5.5099 C.3     1  UNL1        0.1811
      6 C          19.2710   70.6227   -6.2026 C.3     1  UNL1        0.2383
      7 C          19.0982   72.0799   -6.6995 C.3     1  UNL1        0.1895
      8 O          18.1932   72.1399   -7.8025 O.3     1  UNL1       -0.3779
      9 C          20.5382   72.4450   -7.1447 C.3     1  UNL1        0.1713
     10 C          21.4297   71.4407   -6.3890 C.3     1  UNL1        0.1764
     11 O          20.5677   70.6338   -5.5686 O.3     1  UNL1       -0.3308
     12 O          20.6806   72.2856   -8.5579 O.3     1  UNL1       -0.3794
     13 H          18.1296   73.0693   -8.0625 H       1  UNL1        0.2106
     14 H          20.0564   72.8963   -8.9721 H       1  UNL1        0.2105
     15 N          18.2273   70.2760   -5.2372 N.ar    1  UNL1       -0.2551
     16 C          17.0838   69.7135   -5.6654 C.ar    1  UNL1        0.3323
     17 N          16.1084   69.3806   -4.7994 N.ar    1  UNL1       -0.2743
     18 C          16.2609   69.6165   -3.4807 C.ar    1  UNL1        0.2626
     19 C          17.4573   70.2135   -3.0169 C.ar    1  UNL1        0.0795
     20 C          18.4216   70.5325   -3.9066 C.ar    1  UNL1        0.0869
     21 O          16.9314   69.4945   -6.8517 O.2     1  UNL1       -0.2464
     22 O          15.3777   69.3203   -2.6973 O.2     1  UNL1       -0.2670
     23 H          15.2920   68.9713   -5.1252 H       1  UNL1        0.1734
     24 O          23.1121   72.9254   -1.8957 O.3     1  UNL1       -0.2703
     25 P          21.6661   72.3735   -1.4555 P.3     1  UNL1        0.2208
     26 O          21.5403   70.9525   -1.8476 O.2     1  UNL1       -0.5170
     27 O          20.5175   73.2344   -2.1848 O.3     1  UNL1       -0.4371
     28 O          21.5026   72.5063    0.1402 O.3     1  UNL1       -0.2865
     29 C          21.9353   73.8214    0.4931 C.3     1  UNL1        0.2611
     30 C          22.7797   73.7505    1.7666 C.3     1  UNL1        0.1582
     31 C          21.9390   73.1371    2.8921 C.3     1  UNL1        0.1625
     32 C          20.6346   73.9314    3.0180 C.3     1  UNL1        0.1686
     33 C          19.9504   73.9861    1.6505 C.3     1  UNL1        0.1760
     34 O          22.6639   73.2025    4.1215 O.3     1  UNL1       -0.3801
     35 O          19.7730   73.2892    3.9598 O.3     1  UNL1       -0.3794
     36 O          20.7970   74.6514    0.7140 O.3     1  UNL1       -0.3263
     37 H          22.0997   72.8068    4.8000 H       1  UNL1        0.2105
     38 H          18.9655   73.8204    4.0076 H       1  UNL1        0.2105
     39 C          23.9300   71.6038    1.8223 C.2     1  UNL1        0.2231
     40 C          25.1453   70.7469    1.5751 C.3     1  UNL1        0.0946
     41 N          23.9599   72.9175    1.5262 N.am    1  UNL1       -0.2994
     42 O          22.9252   71.1108    2.2886 O.2     1  UNL1       -0.2751
     43 H          24.7639   73.3123    1.1532 H       1  UNL1        0.1496
     44 C          18.6301   74.7497    1.7723 C.3     1  UNL1        0.1693
     45 O          18.7622   75.7761    2.7578 O.3     1  UNL1       -0.3794
     46 H          17.9107   76.2316    2.8034 H       1  UNL1        0.2105
@<TRIPOS>BOND
     1    29    30    1
     2    29    28    1
     3    29    36    1
     4    30    31    1
     5    30    41    1
     6    31    32    1
     7    31    34    1
     8    32    33    1
     9    32    35    1
    10    33    44    1
    11    33    36    1
    12    44    45    1
    13    39    40    1
    14    39    41   am
    15    39    42    2
    16    41    43    1
    17    28    25    1
    18    34    37    1
    19    35    38    1
    20    45    46    1
    21    15    16   ar
    22    15    20   ar
    23    15     6    1
    24    16    17   ar
    25    16    21    2
    26    17    18   ar
    27    17    23    1
    28    18    19   ar
    29    18    22    2
    30    19    20   ar
    31     6     7    1
    32     6    11    1
    33     7     8    1
    34     7     9    1
    35     8    13    1
    36     9    10    1
    37     9    12    1
    38    10    11    1
    39    10     5    1
    40    12    14    1
    41     5     4    1
    42     4     1    1
    43     1     2    2
    44     1     3    1
    45     1    24    1
    46    24    25    1
    47    25    26    2
    48    25    27    1
@<TRIPOS>MOLECULE
UD1
 46 48 0 0 0
SMALL
GASTEIGER

@<TRIPOS>ATOM
      1 P          22.8123   71.4558   -3.0216 P.3     1  UNL1        0.2189
      2 O          24.1819   70.8974   -3.0574 O.2     1  UNL1       -0.5170
      3 O          22.6111   72.4637   -4.2610 O.3     1  UNL1       -0.4371
      4 O          22.5952   72.2549   -1.6406 O.3     1  UNL1       -0.3112
      5 C          23.7235   71.9664   -0.8136 C.3     1  UNL1        0.1811
      6 C          23.0334   71.9744    2.7150 C.3     1  UNL1        0.2383
      7 C          21.6923   72.3840    2.0563 C.3     1  UNL1        0.1895
      8 O          20.5826   71.9451    2.8406 O.3     1  UNL1       -0.3779
      9 C          21.7487   71.6260    0.7044 C.3     1  UNL1        0.1713
     10 C          23.2486   71.3394    0.4981 C.3     1  UNL1        0.1764
     11 O          23.9544   71.9269    1.6045 O.3     1  UNL1       -0.3308
     12 O          21.0060   70.4074    0.7827 O.3     1  UNL1       -0.3794
     13 H          19.7824   72.2306    2.3782 H       1  UNL1        0.2106
     14 H          20.0899   70.6504    0.9718 H       1  UNL1        0.2105
     15 N          23.4577   72.9749    3.6950 N.ar    1  UNL1       -0.2551
     16 C          24.4479   73.8306    3.3876 C.ar    1  UNL1        0.3323
     17 N          24.8559   74.7637    4.2680 N.ar    1  UNL1       -0.2743
     18 C          24.2796   74.8487    5.4840 C.ar    1  UNL1        0.2626
     19 C          23.2401   73.9501    5.8229 C.ar    1  UNL1        0.0795
     20 C          22.8467   73.0275    4.9188 C.ar    1  UNL1        0.0869
     21 O          24.9775   73.7665    2.2948 O.2     1  UNL1       -0.2464
     22 O          24.6510   75.6888    6.2825 O.2     1  UNL1       -0.2670
     23 H          25.5684   75.3759    4.0277 H       1  UNL1        0.1734
     24 O          21.7419   70.2588   -3.1227 O.3     1  UNL1       -0.2703
     25 P          20.2843   70.9253   -2.9794 P.3     1  UNL1        0.2208
     26 O          20.4191   72.3973   -2.9167 O.2     1  UNL1       -0.5170
     27 O          19.5805   70.3939   -1.6324 O.3     1  UNL1       -0.4371
     28 O          19.3814   70.5228   -4.2496 O.3     1  UNL1       -0.2865
     29 C          18.8471   71.7371   -4.7797 C.3     1  UNL1        0.2611
     30 C          17.3759   71.5260   -5.1415 C.3     1  UNL1        0.1582
     31 C          17.2700   70.3939   -6.1695 C.3     1  UNL1        0.1625
     32 C          18.1920   70.7162   -7.3502 C.3     1  UNL1        0.1686
     33 C          19.6026   70.9855   -6.8220 C.3     1  UNL1        0.1760
     34 O          15.9205   70.2869   -6.6267 O.3     1  UNL1       -0.3801
     35 O          18.2209   69.6071   -8.2506 O.3     1  UNL1       -0.3794
     36 O          19.5819   72.1099   -5.9435 O.3     1  UNL1       -0.3263
     37 H          15.8998   69.5647   -7.2695 H       1  UNL1        0.2105
     38 H          18.8121   69.8516   -8.9767 H       1  UNL1        0.2105
     39 C          16.4339   69.8727   -3.6203 C.2     1  UNL1        0.2231
     40 C          15.6574   69.5048   -2.3818 C.3     1  UNL1        0.0946
     41 N          16.6220   71.1681   -3.9382 N.am    1  UNL1       -0.2994
     42 O          16.8891   69.0024   -4.3314 O.2     1  UNL1       -0.2751
     43 H          16.2576   71.8647   -3.3695 H       1  UNL1        0.1496
     44 C          20.5387   71.2766   -7.9967 C.3     1  UNL1        0.1693
     45 O          20.9227   72.6528   -7.9706 O.3     1  UNL1       -0.3794
     46 H          21.5103   72.7938   -8.7253 H       1  UNL1        0.2105
@<TRIPOS>BOND
     1    29    30    1
     2    29    28    1
     3    29    36    1
     4    30    31    1
     5    30    41    1
     6    31    32    1
     7    31    34    1
     8    32    33    1
     9    32    35    1
    10    33    44    1
    11    33    36    1
    12    44    45    1
    13    39    40    1
    14    39    41   am
    15    39    42    2
    16    41    43    1
    17    28    25    1
    18    34    37    1
    19    35    38    1
    20    45    46    1
    21    15    16   ar
    22    15    20   ar
    23    15     6    1
    24    16    17   ar
    25    16    21    2
    26    17    18   ar
    27    17    23    1
    28    18    19   ar
    29    18    22    2
    30    19    20   ar
    31     6     7    1
    32     6    11    1
    33     7     8    1
    34     7     9    1
    35     8    13    1
    36     9    10    1
    37     9    12    1
    38    10    11    1
    39    10     5    1
    40    12    14    1
    41     5     4    1
    42     4     1    1
    43     1     2    2
    44     1     3    1
    45     1    24    1
    46    24    25    1
    47    25    26    2
    48    25    27    1
@<TRIPOS>MOLECULE
UD1
 46 48 0 0 0
SMALL
GASTEIGER

@<TRIPOS>ATOM
      1 P          21.0835   71.1931   -2.3958 P.3     1  UNL1        0.2189
      2 O          21.6147   70.1122   -3.2549 O.2     1  UNL1       -0.5170
      3 O          20.8899   70.6404   -0.8959 O.3     1  UNL1       -0.4371
      4 O          19.6633   71.6869   -2.9721 O.3     1  UNL1       -0.3112
      5 C          18.6762   70.7855   -2.4686 C.3     1  UNL1        0.1811
      6 C          17.0468   70.5431   -5.6644 C.3     1  UNL1        0.2383
      7 C          17.0143   69.1000   -5.1017 C.3     1  UNL1        0.1895
      8 O          15.8611   68.3966   -5.5649 O.3     1  UNL1       -0.3779
      9 C          16.9342   69.3484   -3.5730 C.3     1  UNL1        0.1713
     10 C          17.4623   70.7855   -3.3989 C.3     1  UNL1        0.1764
     11 O          17.8435   71.2636   -4.7002 O.3     1  UNL1       -0.3308
     12 O          15.5824   69.2469   -3.1198 O.3     1  UNL1       -0.3794
     13 H          15.9009   67.5098   -5.1809 H       1  UNL1        0.2106
     14 H          15.2911   68.3452   -3.3101 H       1  UNL1        0.2105
     15 N          17.6810   70.5723   -6.9829 N.ar    1  UNL1       -0.2551
     16 C          16.9218   70.4904   -8.0894 C.ar    1  UNL1        0.3323
     17 N          17.4777   70.5187   -9.3151 N.ar    1  UNL1       -0.2743
     18 C          18.8151   70.6213   -9.4524 C.ar    1  UNL1        0.2626
     19 C          19.6266   70.7024   -8.2959 C.ar    1  UNL1        0.0795
     20 C          19.0425   70.6770   -7.0787 C.ar    1  UNL1        0.0869
     21 O          15.7141   70.3975   -7.9819 O.2     1  UNL1       -0.2464
     22 O          19.3192   70.6422  -10.5601 O.2     1  UNL1       -0.2670
     23 H          16.9145   70.4633  -10.1024 H       1  UNL1        0.1734
     24 O          22.1163   72.4268   -2.3850 O.3     1  UNL1       -0.2703
     25 P          22.5774   72.6604   -3.9089 P.3     1  UNL1        0.2208
     26 O          21.6608   71.9374   -4.8178 O.2     1  UNL1       -0.5170
     27 O          24.0761   72.1068   -4.1077 O.3     1  UNL1       -0.4371
     28 O          22.5386   74.2334   -4.2475 O.3     1  UNL1       -0.2865
     29 C          23.7994   74.7744   -3.8489 C.3     1  UNL1        0.2611
     30 C          23.5681   75.9184   -2.8601 C.3     1  UNL1        0.1582
     31 C          22.7055   76.9936   -3.5303 C.3     1  UNL1        0.1625
     32 C          23.3661   77.3981   -4.8525 C.3     1  UNL1        0.1686
     33 C          23.6098   76.1426   -5.6924 C.3     1  UNL1        0.1760
     34 O          22.6069   78.1319   -2.6725 O.3     1  UNL1       -0.3801
     35 O          22.5059   78.2907   -5.5631 O.3     1  UNL1       -0.3794
     36 O          24.4907   75.2609   -4.9973 O.3     1  UNL1       -0.3263
     37 H          22.0571   78.7813   -3.1321 H       1  UNL1        0.2105
     38 H          22.9589   78.5189   -6.3872 H       1  UNL1        0.2105
     39 C          23.5811   75.1212   -0.5582 C.2     1  UNL1        0.2231
     40 C          22.8729   74.5951    0.6641 C.3     1  UNL1        0.0946
     41 N          22.8805   75.4077   -1.6723 N.am    1  UNL1       -0.2994
     42 O          24.7822   75.2860   -0.5390 O.2     1  UNL1       -0.2751
     43 H          21.9193   75.2757   -1.6880 H       1  UNL1        0.1496
     44 C          24.2399   76.5391   -7.0292 C.3     1  UNL1        0.1693
     45 O          24.3109   75.3940   -7.8811 O.3     1  UNL1       -0.3794
     46 H          24.7130   75.6866   -8.7102 H       1  UNL1        0.2105
@<TRIPOS>BOND
     1    29    30    1
     2    29    28    1
     3    29    36    1
     4    30    31    1
     5    30    41    1
     6    31    32    1
     7    31    34    1
     8    32    33    1
     9    32    35    1
    10    33    44    1
    11    33    36    1
    12    44    45    1
    13    39    40    1
    14    39    41   am
    15    39    42    2
    16    41    43    1
    17    28    25    1
    18    34    37    1
    19    35    38    1
    20    45    46    1
    21    15    16   ar
    22    15    20   ar
    23    15     6    1
    24    16    17   ar
    25    16    21    2
    26    17    18   ar
    27    17    23    1
    28    18    19   ar
    29    18    22    2
    30    19    20   ar
    31     6     7    1
    32     6    11    1
    33     7     8    1
    34     7     9    1
    35     8    13    1
    36     9    10    1
    37     9    12    1
    38    10    11    1
    39    10     5    1
    40    12    14    1
    41     5     4    1
    42     4     1    1
    43     1     2    2
    44     1     3    1
    45     1    24    1
    46    24    25    1
    47    25    26    2
    48    25    27    1
@<TRIPOS>MOLECULE
UD1
 46 48 0 0 0
SMALL
GASTEIGER

@<TRIPOS>ATOM
      1 P          22.2445   71.2960   -0.2223 P.3     1  UNL1        0.2189
      2 O          21.4760   70.4055    0.6751 O.2     1  UNL1       -0.5170
      3 O          23.8113   70.9396   -0.1191 O.3     1  UNL1       -0.4371
      4 O          22.0137   72.8280    0.2165 O.3     1  UNL1       -0.3112
      5 C          23.0226   73.1396    1.1784 C.3     1  UNL1        0.1811
      6 C          22.8579   73.2107    4.7694 C.3     1  UNL1        0.2383
      7 C          21.5694   73.9363    4.3073 C.3     1  UNL1        0.1895
      8 O          20.5101   73.7441    5.2455 O.3     1  UNL1       -0.3779
      9 C          21.2571   73.2228    2.9662 C.3     1  UNL1        0.1713
     10 C          22.6050   72.6037    2.5487 C.3     1  UNL1        0.1764
     11 O          23.5766   72.9823    3.5386 O.3     1  UNL1       -0.3308
     12 O          20.2705   72.2066    3.1580 O.3     1  UNL1       -0.3794
     13 H          19.7411   74.2189    4.9009 H       1  UNL1        0.2106
     14 H          19.4718   72.6491    3.4750 H       1  UNL1        0.2105
     15 N          23.6366   74.0594    5.6720 N.ar    1  UNL1       -0.2551
     16 C          24.7951   74.5948    5.2493 C.ar    1  UNL1        0.3323
     17 N          25.5300   75.3824    6.0566 N.ar    1  UNL1       -0.2743
     18 C          25.1169   75.6406    7.3138 C.ar    1  UNL1        0.2626
     19 C          23.9023   75.0785    7.7737 C.ar    1  UNL1        0.0795
     20 C          23.1821   74.2964    6.9413 C.ar    1  UNL1        0.0869
     21 O          25.1809   74.3713    4.1180 O.2     1  UNL1       -0.2464
     22 O          25.7830   76.3486    8.0462 O.2     1  UNL1       -0.2670
     23 H          26.3608   75.7641    5.7336 H       1  UNL1        0.1734
     24 O          21.7452   71.0911   -1.7380 O.3     1  UNL1       -0.2703
     25 P          22.8938   71.6925   -2.6911 P.3     1  UNL1        0.2208
     26 O          24.1186   70.8721   -2.5655 O.2     1  UNL1       -0.5170
     27 O          23.2165   73.2079   -2.2533 O.3     1  UNL1       -0.4371
     28 O          22.3894   71.6729   -4.2195 O.3     1  UNL1       -0.2865
     29 C          21.1963   72.4570   -4.2722 C.3     1  UNL1        0.2611
     30 C          20.0890   71.6468   -4.9485 C.3     1  UNL1        0.1582
     31 C          20.5434   71.2573   -6.3597 C.3     1  UNL1        0.1625
     32 C          20.9706   72.5264   -7.1048 C.3     1  UNL1        0.1686
     33 C          22.0138   73.2688   -6.2670 C.3     1  UNL1        0.1760
     34 O          19.4637   70.6307   -7.0546 O.3     1  UNL1       -0.3801
     35 O          21.5350   72.1715   -8.3686 O.3     1  UNL1       -0.3794
     36 O          21.4449   73.6488   -5.0147 O.3     1  UNL1       -0.3263
     37 H          19.7928   70.4026   -7.9349 H       1  UNL1        0.2105
     38 H          21.7904   72.9978   -8.8028 H       1  UNL1        0.2105
     39 C          18.5538   70.0157   -3.9910 C.2     1  UNL1        0.2231
     40 C          18.2781   68.7706   -3.1872 C.3     1  UNL1        0.0946
     41 N          19.8208   70.4371   -4.1682 N.am    1  UNL1       -0.2994
     42 O          17.6346   70.6388   -4.4780 O.2     1  UNL1       -0.2751
     43 H          20.5565   69.9387   -3.7784 H       1  UNL1        0.1496
     44 C          22.4712   74.5214   -7.0173 C.3     1  UNL1        0.1693
     45 O          21.3767   75.0555   -7.7650 O.3     1  UNL1       -0.3794
     46 H          21.7068   75.8411   -8.2217 H       1  UNL1        0.2105
@<TRIPOS>BOND
     1    29    30    1
     2    29    28    1
     3    29    36    1
     4    30    31    1
     5    30    41    1
     6    31    32    1
     7    31    34    1
     8    32    33    1
     9    32    35    1
    10    33    44    1
    11    33    36    1
    12    44    45    1
    13    39    40    1
    14    39    41   am
    15    39    42    2
    16    41    43    1
    17    28    25    1
    18    34    37    1
    19    35    38    1
    20    45    46    1
    21    15    16   ar
    22    15    20   ar
    23    15     6    1
    24    16    17   ar
    25    16    21    2
    26    17    18   ar
    27    17    23    1
    28    18    19   ar
    29    18    22    2
    30    19    20   ar
    31     6     7    1
    32     6    11    1
    33     7     8    1
    34     7     9    1
    35     8    13    1
    36     9    10    1
    37     9    12    1
    38    10    11    1
    39    10     5    1
    40    12    14    1
    41     5     4    1
    42     4     1    1
    43     1     2    2
    44     1     3    1
    45     1    24    1
    46    24    25    1
    47    25    26    2
    48    25    27    1
@<TRIPOS>MOLECULE
UD1
 46 48 0 0 0
SMALL
GASTEIGER

@<TRIPOS>ATOM
      1 P          17.1200   69.6056   -2.6090 P.3     1  UNL1        0.2189
      2 O          18.4907   69.6868   -2.0584 O.2     1  UNL1       -0.5170
      3 O          16.5305   71.0914   -2.8030 O.3     1  UNL1       -0.4371
      4 O          16.1807   68.7855   -1.5902 O.3     1  UNL1       -0.3112
      5 C          15.2415   69.7174   -1.0518 C.3     1  UNL1        0.1811
      6 C          12.5621   68.0182    0.6397 C.3     1  UNL1        0.2383
      7 C          12.2062   69.5212    0.7605 C.3     1  UNL1        0.1895
      8 O          10.7912   69.7101    0.7956 O.3     1  UNL1       -0.3779
      9 C          12.8102   70.1047   -0.5433 C.3     1  UNL1        0.1713
     10 C          13.8622   69.0619   -0.9680 C.3     1  UNL1        0.1764
     11 O          13.8716   68.0292    0.0323 O.3     1  UNL1       -0.3308
     12 O          11.7999   70.2422   -1.5449 O.3     1  UNL1       -0.3794
     13 H          10.6374   70.6620    0.8716 H       1  UNL1        0.2106
     14 H          11.1430   70.8594   -1.1961 H       1  UNL1        0.2105
     15 N          12.6106   67.3882    1.9596 N.ar    1  UNL1       -0.2551
     16 C          12.6739   68.1550    3.0620 C.ar    1  UNL1        0.3323
     17 N          12.7156   67.6028    4.2890 N.ar    1  UNL1       -0.2743
     18 C          12.7037   66.2621    4.4315 C.ar    1  UNL1        0.2626
     19 C          12.6432   65.4429    3.2791 C.ar    1  UNL1        0.0795
     20 C          12.5969   66.0231    2.0607 C.ar    1  UNL1        0.0869
     21 O          12.6854   69.3658    2.9498 O.2     1  UNL1       -0.2464
     22 O          12.7461   65.7617    5.5402 O.2     1  UNL1       -0.2670
     23 H          12.7563   68.1712    5.0735 H       1  UNL1        0.1734
     24 O          17.1562   68.8519   -4.0301 O.3     1  UNL1       -0.2703
     25 P          17.1376   69.9945   -5.1630 P.3     1  UNL1        0.2208
     26 O          16.2084   71.0730   -4.7604 O.2     1  UNL1       -0.5170
     27 O          16.6485   69.3591   -6.5591 O.3     1  UNL1       -0.4371
     28 O          18.6182   70.6003   -5.3403 O.3     1  UNL1       -0.2865
     29 C          18.4745   72.0163   -5.4642 C.3     1  UNL1        0.2611
     30 C          19.1402   72.4799   -6.7611 C.3     1  UNL1        0.1582
     31 C          20.6215   72.0868   -6.7325 C.3     1  UNL1        0.1625
     32 C          21.2490   72.6335   -5.4459 C.3     1  UNL1        0.1686
     33 C          20.4258   72.1557   -4.2478 C.3     1  UNL1        0.1760
     34 O          21.2867   72.6436   -7.8678 O.3     1  UNL1       -0.3801
     35 O          22.5901   72.1551   -5.3275 O.3     1  UNL1       -0.3794
     36 O          19.0927   72.6547   -4.3490 O.3     1  UNL1       -0.3263
     37 H          22.2130   72.3718   -7.8100 H       1  UNL1        0.2105
     38 H          22.9464   72.5216   -4.5057 H       1  UNL1        0.2105
     39 C          19.0130   70.7275   -8.4484 C.2     1  UNL1        0.2231
     40 C          18.3383   70.0699   -9.6251 C.3     1  UNL1        0.0946
     41 N          18.4849   71.8405   -7.9039 N.am    1  UNL1       -0.2994
     42 O          20.0321   70.2549   -7.9919 O.2     1  UNL1       -0.2751
     43 H          17.6695   72.2191   -8.2691 H       1  UNL1        0.1496
     44 C          21.0631   72.6696   -2.9552 C.3     1  UNL1        0.1693
     45 O          22.0217   71.7195   -2.4857 O.3     1  UNL1       -0.3794
     46 H          22.3984   72.0808   -1.6719 H       1  UNL1        0.2105
@<TRIPOS>BOND
     1    29    30    1
     2    29    28    1
     3    29    36    1
     4    30    31    1
     5    30    41    1
     6    31    32    1
     7    31    34    1
     8    32    33    1
     9    32    35    1
    10    33    44    1
    11    33    36    1
    12    44    45    1
    13    39    40    1
    14    39    41   am
    15    39    42    2
    16    41    43    1
    17    28    25    1
    18    34    37    1
    19    35    38    1
    20    45    46    1
    21    15    16   ar
    22    15    20   ar
    23    15     6    1
    24    16    17   ar
    25    16    21    2
    26    17    18   ar
    27    17    23    1
    28    18    19   ar
    29    18    22    2
    30    19    20   ar
    31     6     7    1
    32     6    11    1
    33     7     8    1
    34     7     9    1
    35     8    13    1
    36     9    10    1
    37     9    12    1
    38    10    11    1
    39    10     5    1
    40    12    14    1
    41     5     4    1
    42     4     1    1
    43     1     2    2
    44     1     3    1
    45     1    24    1
    46    24    25    1
    47    25    26    2
    48    25    27    1
@<TRIPOS>MOLECULE
UD1
 46 48 0 0 0
SMALL
GASTEIGER

@<TRIPOS>ATOM
      1 P          22.7690   71.3680   -2.5552 P.3     1  UNL1        0.2189
      2 O          23.9977   71.0148   -3.2997 O.2     1  UNL1       -0.5170
      3 O          22.5433   72.9610   -2.6167 O.3     1  UNL1       -0.4371
      4 O          22.9215   70.9075   -1.0198 O.3     1  UNL1       -0.3112
      5 C          21.6096   70.9091   -0.4549 C.3     1  UNL1        0.1811
      6 C          23.3065   71.9858    2.5265 C.3     1  UNL1        0.2383
      7 C          22.7091   73.2846    1.9293 C.3     1  UNL1        0.1895
      8 O          22.3863   74.2194    2.9594 O.3     1  UNL1       -0.3779
      9 C          21.4252   72.7625    1.2336 C.3     1  UNL1        0.1713
     10 C          21.6938   71.2587    1.0317 C.3     1  UNL1        0.1764
     11 O          23.0178   70.9890    1.5232 O.3     1  UNL1       -0.3308
     12 O          20.2846   72.9657    2.0706 O.3     1  UNL1       -0.3794
     13 H          22.0214   75.0018    2.5233 H       1  UNL1        0.2106
     14 H          20.2053   73.9191    2.2080 H       1  UNL1        0.2105
     15 N          24.7508   72.1197    2.7204 N.ar    1  UNL1       -0.2551
     16 C          25.5519   71.0602    2.5132 C.ar    1  UNL1        0.3323
     17 N          26.8843   71.1555    2.6802 N.ar    1  UNL1       -0.2743
     18 C          27.4386   72.3213    3.0696 C.ar    1  UNL1        0.2626
     19 C          26.6062   73.4431    3.2971 C.ar    1  UNL1        0.0795
     20 C          25.2735   73.3211    3.1169 C.ar    1  UNL1        0.0869
     21 O          25.0669   70.0020    2.1617 O.2     1  UNL1       -0.2464
     22 O          28.6426   72.4074    3.2255 O.2     1  UNL1       -0.2670
     23 H          27.4476   70.3824    2.5217 H       1  UNL1        0.1734
     24 O          21.5071   70.6203   -3.2166 O.3     1  UNL1       -0.2703
     25 P          20.9319   71.5992   -4.3568 P.3     1  UNL1        0.2208
     26 O          22.0322   72.0066   -5.2580 O.2     1  UNL1       -0.5170
     27 O          20.2904   72.9062   -3.6695 O.3     1  UNL1       -0.4371
     28 O          19.8003   70.8307   -5.2050 O.3     1  UNL1       -0.2865
     29 C          18.9024   71.8273   -5.6967 C.3     1  UNL1        0.2611
     30 C          17.4668   71.3097   -5.5914 C.3     1  UNL1        0.1582
     31 C          17.3389   70.0172   -6.4054 C.3     1  UNL1        0.1625
     32 C          17.8326   70.2851   -7.8311 C.3     1  UNL1        0.1686
     33 C          19.2421   70.8771   -7.7675 C.3     1  UNL1        0.1760
     34 O          15.9712   69.6053   -6.4381 O.3     1  UNL1       -0.3801
     35 O          17.8601   69.0597   -8.5654 O.3     1  UNL1       -0.3794
     36 O          19.2134   72.1151   -7.0582 O.3     1  UNL1       -0.3263
     37 H          15.9371   68.7909   -6.9586 H       1  UNL1        0.2105
     38 H          18.1766   69.2734   -9.4546 H       1  UNL1        0.2105
     39 C          17.2724   69.7931   -3.6950 C.2     1  UNL1        0.2231
     40 C          16.9405   69.5157   -2.2510 C.3     1  UNL1        0.0946
     41 N          17.1450   71.0399   -4.1885 N.am    1  UNL1       -0.2994
     42 O          17.6537   68.8936   -4.4130 O.2     1  UNL1       -0.2751
     43 H          16.8396   71.7599   -3.6142 H       1  UNL1        0.1496
     44 C          19.7572   71.1181   -9.1879 C.3     1  UNL1        0.1693
     45 O          18.6493   71.2605  -10.0792 O.3     1  UNL1       -0.3794
     46 H          19.0167   71.4101  -10.9608 H       1  UNL1        0.2105
@<TRIPOS>BOND
     1    29    30    1
     2    29    28    1
     3    29    36    1
     4    30    31    1
     5    30    41    1
     6    31    32    1
     7    31    34    1
     8    32    33    1
     9    32    35    1
    10    33    44    1
    11    33    36    1
    12    44    45    1
    13    39    40    1
    14    39    41   am
    15    39    42    2
    16    41    43    1
    17    28    25    1
    18    34    37    1
    19    35    38    1
    20    45    46    1
    21    15    16   ar
    22    15    20   ar
    23    15     6    1
    24    16    17   ar
    25    16    21    2
    26    17    18   ar
    27    17    23    1
    28    18    19   ar
    29    18    22    2
    30    19    20   ar
    31     6     7    1
    32     6    11    1
    33     7     8    1
    34     7     9    1
    35     8    13    1
    36     9    10    1
    37     9    12    1
    38    10    11    1
    39    10     5    1
    40    12    14    1
    41     5     4    1
    42     4     1    1
    43     1     2    2
    44     1     3    1
    45     1    24    1
    46    24    25    1
    47    25    26    2
    48    25    27    1
@<TRIPOS>MOLECULE
UD1
 46 48 0 0 0
SMALL
GASTEIGER

@<TRIPOS>ATOM
      1 P          23.1475   71.6072   -1.7170 P.3     1  UNL1        0.2189
      2 O          23.1925   73.0820   -1.8252 O.2     1  UNL1       -0.5170
      3 O          24.3082   70.9665   -2.6307 O.3     1  UNL1       -0.4371
      4 O          21.7137   71.0761   -2.2219 O.3     1  UNL1       -0.3112
      5 C          21.2431   72.0136   -3.1915 C.3     1  UNL1        0.1811
      6 C          20.3134   71.0914   -6.5400 C.3     1  UNL1        0.2383
      7 C          20.8036   72.5560   -6.6626 C.3     1  UNL1        0.1895
      8 O          21.3867   72.7942   -7.9442 O.3     1  UNL1       -0.3779
      9 C          21.8748   72.6356   -5.5439 C.3     1  UNL1        0.1713
     10 C          21.5141   71.4747   -4.5969 C.3     1  UNL1        0.1764
     11 O          20.3292   70.8482   -5.1172 O.3     1  UNL1       -0.3308
     12 O          23.1832   72.4559   -6.0903 O.3     1  UNL1       -0.3794
     13 H          21.6694   73.7191   -7.9558 H       1  UNL1        0.2106
     14 H          23.3255   73.1776   -6.7172 H       1  UNL1        0.2105
     15 N          18.9577   70.9512   -7.0726 N.ar    1  UNL1       -0.2551
     16 C          18.7794   70.5574   -8.3456 C.ar    1  UNL1        0.3323
     17 N          17.5437   70.4162   -8.8609 N.ar    1  UNL1       -0.2743
     18 C          16.4583   70.6782   -8.1051 C.ar    1  UNL1        0.2626
     19 C          16.6318   71.0993   -6.7651 C.ar    1  UNL1        0.0795
     20 C          17.8823   71.2276   -6.2721 C.ar    1  UNL1        0.0869
     21 O          19.7484   70.3173   -9.0398 O.2     1  UNL1       -0.2464
     22 O          15.3408   70.5554   -8.5713 O.2     1  UNL1       -0.2670
     23 H          17.4336   70.1266   -9.7797 H       1  UNL1        0.1734
     24 O          23.3702   71.1746   -0.1834 O.3     1  UNL1       -0.2703
     25 P          22.0020   71.5054    0.5963 P.3     1  UNL1        0.2208
     26 O          21.1460   70.2991    0.6240 O.2     1  UNL1       -0.5170
     27 O          21.2262   72.6957   -0.1611 O.3     1  UNL1       -0.4371
     28 O          22.3380   71.9595    2.1034 O.3     1  UNL1       -0.2865
     29 C          22.6616   73.3503    2.0549 C.3     1  UNL1        0.2611
     30 C          23.6439   73.6798    3.1803 C.3     1  UNL1        0.1582
     31 C          23.0037   73.3198    4.5257 C.3     1  UNL1        0.1625
     32 C          21.6428   74.0172    4.6231 C.3     1  UNL1        0.1686
     33 C          20.8102   73.6597    3.3901 C.3     1  UNL1        0.1760
     34 O          23.8483   73.7599    5.5908 O.3     1  UNL1       -0.3801
     35 O          20.9650   73.5798    5.8025 O.3     1  UNL1       -0.3794
     36 O          21.4713   74.1196    2.2120 O.3     1  UNL1       -0.3263
     37 H          23.4085   73.5134    6.4162 H       1  UNL1        0.2105
     38 H          20.1148   74.0416    5.8240 H       1  UNL1        0.2105
     39 C          26.0700   73.4718    3.2497 C.2     1  UNL1        0.2231
     40 C          27.3358   72.6747    3.0629 C.3     1  UNL1        0.0946
     41 N          24.8737   72.9057    2.9994 N.am    1  UNL1       -0.2994
     42 O          26.1285   74.6234    3.6247 O.2     1  UNL1       -0.2751
     43 H          24.8267   71.9843    2.6990 H       1  UNL1        0.1496
     44 C          19.4363   74.3253    3.4934 C.3     1  UNL1        0.1693
     45 O          19.4459   75.5540    2.7640 O.3     1  UNL1       -0.3794
     46 H          18.5643   75.9402    2.8548 H       1  UNL1        0.2105
@<TRIPOS>BOND
     1    29    30    1
     2    29    28    1
     3    29    36    1
     4    30    31    1
     5    30    41    1
     6    31    32    1
     7    31    34    1
     8    32    33    1
     9    32    35    1
    10    33    44    1
    11    33    36    1
    12    44    45    1
    13    39    40    1
    14    39    41   am
    15    39    42    2
    16    41    43    1
    17    28    25    1
    18    34    37    1
    19    35    38    1
    20    45    46    1
    21    15    16   ar
    22    15    20   ar
    23    15     6    1
    24    16    17   ar
    25    16    21    2
    26    17    18   ar
    27    17    23    1
    28    18    19   ar
    29    18    22    2
    30    19    20   ar
    31     6     7    1
    32     6    11    1
    33     7     8    1
    34     7     9    1
    35     8    13    1
    36     9    10    1
    37     9    12    1
    38    10    11    1
    39    10     5    1
    40    12    14    1
    41     5     4    1
    42     4     1    1
    43     1     2    2
    44     1     3    1
    45     1    24    1
    46    24    25    1
    47    25    26    2
    48    25    27    1
@<TRIPOS>MOLECULE
UD1
 46 48 0 0 0
SMALL
GASTEIGER

@<TRIPOS>ATOM
      1 P          21.9321   71.3112   -0.4138 P.3     1  UNL1        0.2189
      2 O          21.0685   70.3978    0.3663 O.2     1  UNL1       -0.5170
      3 O          23.4747   70.8982   -0.2077 O.3     1  UNL1       -0.4371
      4 O          21.7100   72.8231    0.0939 O.3     1  UNL1       -0.3112
      5 C          21.7617   72.7923    1.5210 C.3     1  UNL1        0.1811
      6 C          24.8337   74.2979    2.6268 C.3     1  UNL1        0.2383
      7 C          24.7915   74.5761    1.1033 C.3     1  UNL1        0.1895
      8 O          25.4526   75.8022    0.7891 O.3     1  UNL1       -0.3779
      9 C          23.2680   74.6842    0.8342 C.3     1  UNL1        0.1713
     10 C          22.6242   73.9499    2.0262 C.3     1  UNL1        0.1764
     11 O          23.6914   73.4431    2.8457 O.3     1  UNL1       -0.3308
     12 O          22.8613   76.0540    0.8033 O.3     1  UNL1       -0.3794
     13 H          25.3914   75.9158   -0.1695 H       1  UNL1        0.2106
     14 H          23.3419   76.4717    0.0763 H       1  UNL1        0.2105
     15 N          26.0715   73.6095    2.9949 N.ar    1  UNL1       -0.2551
     16 C          26.2492   72.3243    2.6429 C.ar    1  UNL1        0.3323
     17 N          27.3793   71.6674    2.9647 N.ar    1  UNL1       -0.2743
     18 C          28.3534   72.2904    3.6581 C.ar    1  UNL1        0.2626
     19 C          28.1769   73.6415    4.0403 C.ar    1  UNL1        0.0795
     20 C          27.0358   74.2782    3.6998 C.ar    1  UNL1        0.0869
     21 O          25.3798   71.7488    2.0172 O.2     1  UNL1       -0.2464
     22 O          29.3736   71.6960    3.9537 O.2     1  UNL1       -0.2670
     23 H          27.4927   70.7419    2.6984 H       1  UNL1        0.1734
     24 O          21.5517   71.2078   -1.9738 O.3     1  UNL1       -0.2703
     25 P          22.8188   71.7584   -2.7987 P.3     1  UNL1        0.2208
     26 O          23.9742   70.8591   -2.5862 O.2     1  UNL1       -0.5170
     27 O          23.1909   73.2390   -2.2872 O.3     1  UNL1       -0.4371
     28 O          22.4592   71.8086   -4.3668 O.3     1  UNL1       -0.2865
     29 C          21.2373   72.5388   -4.4886 C.3     1  UNL1        0.2611
     30 C          20.2257   71.7028   -5.2746 C.3     1  UNL1        0.1582
     31 C          20.8056   71.3838   -6.6572 C.3     1  UNL1        0.1625
     32 C          21.2272   72.6962   -7.3266 C.3     1  UNL1        0.1686
     33 C          22.1658   73.4559   -6.3868 C.3     1  UNL1        0.1760
     34 O          19.8140   70.7330   -7.4539 O.3     1  UNL1       -0.3801
     35 O          21.9035   72.4116   -8.5526 O.3     1  UNL1       -0.3794
     36 O          21.4845   73.7658   -5.1718 O.3     1  UNL1       -0.3263
     37 H          20.2206   70.5510   -8.3123 H       1  UNL1        0.2105
     38 H          22.1515   73.2633   -8.9395 H       1  UNL1        0.2105
     39 C          18.6990   70.1485   -4.1848 C.2     1  UNL1        0.2231
     40 C          18.4228   68.8649   -3.4444 C.3     1  UNL1        0.0946
     41 N          19.9569   70.4557   -4.5557 N.am    1  UNL1       -0.2994
     42 O          17.7886   70.9055   -4.4463 O.2     1  UNL1       -0.2751
     43 H          20.6856   69.8502   -4.3464 H       1  UNL1        0.1496
     44 C          22.6186   74.7534   -7.0596 C.3     1  UNL1        0.1693
     45 O          23.8507   75.1864   -6.4795 O.3     1  UNL1       -0.3794
     46 H          24.0999   76.0045   -6.9303 H       1  UNL1        0.2105
@<TRIPOS>BOND
     1    29    30    1
     2    29    28    1
     3    29    36    1
     4    30    31    1
     5    30    41    1
     6    31    32    1
     7    31    34    1
     8    32    33    1
     9    32    35    1
    10    33    44    1
    11    33    36    1
    12    44    45    1
    13    39    40    1
    14    39    41   am
    15    39    42    2
    16    41    43    1
    17    28    25    1
    18    34    37    1
    19    35    38    1
    20    45    46    1
    21    15    16   ar
    22    15    20   ar
    23    15     6    1
    24    16    17   ar
    25    16    21    2
    26    17    18   ar
    27    17    23    1
    28    18    19   ar
    29    18    22    2
    30    19    20   ar
    31     6     7    1
    32     6    11    1
    33     7     8    1
    34     7     9    1
    35     8    13    1
    36     9    10    1
    37     9    12    1
    38    10    11    1
    39    10     5    1
    40    12    14    1
    41     5     4    1
    42     4     1    1
    43     1     2    2
    44     1     3    1
    45     1    24    1
    46    24    25    1
    47    25    26    2
    48    25    27    1
@<TRIPOS>MOLECULE
UD1
 46 48 0 0 0
SMALL
GASTEIGER

@<TRIPOS>ATOM
      1 P          20.9960   71.2397   -2.3829 P.3     1  UNL1        0.2189
      2 O          21.3465   70.1797   -3.3536 O.2     1  UNL1       -0.5170
      3 O          21.1068   70.6553   -0.8867 O.3     1  UNL1       -0.4371
      4 O          19.4887   71.7373   -2.6534 O.3     1  UNL1       -0.3112
      5 C          18.6321   70.6251   -2.3896 C.3     1  UNL1        0.1811
      6 C          17.0087   70.5034   -5.5953 C.3     1  UNL1        0.2383
      7 C          16.9368   69.0483   -5.0684 C.3     1  UNL1        0.1895
      8 O          15.7675   68.3866   -5.5522 O.3     1  UNL1       -0.3779
      9 C          16.8575   69.2611   -3.5342 C.3     1  UNL1        0.1713
     10 C          17.4220   70.6793   -3.3233 C.3     1  UNL1        0.1764
     11 O          17.8202   71.1791   -4.6113 O.3     1  UNL1       -0.3308
     12 O          15.5019   69.1837   -3.0878 O.3     1  UNL1       -0.3794
     13 H          15.7829   67.4899   -5.1900 H       1  UNL1        0.2106
     14 H          15.1880   68.2948   -3.3011 H       1  UNL1        0.2105
     15 N          17.6482   70.5485   -6.9108 N.ar    1  UNL1       -0.2551
     16 C          16.8944   70.4706   -8.0212 C.ar    1  UNL1        0.3323
     17 N          17.4553   70.5134   -9.2442 N.ar    1  UNL1       -0.2743
     18 C          18.7925   70.6267   -9.3749 C.ar    1  UNL1        0.2626
     19 C          19.5985   70.7036   -8.2142 C.ar    1  UNL1        0.0795
     20 C          19.0093   70.6636   -6.9998 C.ar    1  UNL1        0.0869
     21 O          15.6870   70.3683   -7.9197 O.2     1  UNL1       -0.2464
     22 O          19.3011   70.6607  -10.4801 O.2     1  UNL1       -0.2670
     23 H          16.8958   70.4608  -10.0344 H       1  UNL1        0.1734
     24 O          22.0084   72.4787   -2.5525 O.3     1  UNL1       -0.2703
     25 P          21.2931   73.7579   -1.8882 P.3     1  UNL1        0.2208
     26 O          20.5243   73.3305   -0.6985 O.2     1  UNL1       -0.5170
     27 O          20.2953   74.4312   -2.9575 O.3     1  UNL1       -0.4371
     28 O          22.4095   74.8307   -1.4486 O.3     1  UNL1       -0.2865
     29 C          23.6549   74.1329   -1.3911 C.3     1  UNL1        0.2611
     30 C          24.1497   74.1012    0.0560 C.3     1  UNL1        0.1582
     31 C          24.3112   75.5390    0.5621 C.3     1  UNL1        0.1625
     32 C          25.2071   76.3054   -0.4167 C.3     1  UNL1        0.1686
     33 C          24.6307   76.1733   -1.8279 C.3     1  UNL1        0.1760
     34 O          24.9133   75.5258    1.8578 O.3     1  UNL1       -0.3801
     35 O          25.2519   77.6842   -0.0443 O.3     1  UNL1       -0.3794
     36 O          24.6100   74.7995   -2.2136 O.3     1  UNL1       -0.3263
     37 H          24.9956   76.4481    2.1371 H       1  UNL1        0.2105
     38 H          25.8244   78.1286   -0.6855 H       1  UNL1        0.2105
     39 C          23.5987   72.5156    1.8214 C.2     1  UNL1        0.2231
     40 C          22.5968   71.7870    2.6804 C.3     1  UNL1        0.0946
     41 N          23.1769   73.3935    0.8911 N.am    1  UNL1       -0.2994
     42 O          24.7848   72.3109    1.9673 O.2     1  UNL1       -0.2751
     43 H          22.2277   73.5573    0.7739 H       1  UNL1        0.1496
     44 C          25.5004   76.9625   -2.8087 C.3     1  UNL1        0.1693
     45 O          25.0038   78.2980   -2.9181 O.3     1  UNL1       -0.3794
     46 H          25.5782   78.7597   -3.5439 H       1  UNL1        0.2105
@<TRIPOS>BOND
     1    29    30    1
     2    29    28    1
     3    29    36    1
     4    30    31    1
     5    30    41    1
     6    31    32    1
     7    31    34    1
     8    32    33    1
     9    32    35    1
    10    33    44    1
    11    33    36    1
    12    44    45    1
    13    39    40    1
    14    39    41   am
    15    39    42    2
    16    41    43    1
    17    28    25    1
    18    34    37    1
    19    35    38    1
    20    45    46    1
    21    15    16   ar
    22    15    20   ar
    23    15     6    1
    24    16    17   ar
    25    16    21    2
    26    17    18   ar
    27    17    23    1
    28    18    19   ar
    29    18    22    2
    30    19    20   ar
    31     6     7    1
    32     6    11    1
    33     7     8    1
    34     7     9    1
    35     8    13    1
    36     9    10    1
    37     9    12    1
    38    10    11    1
    39    10     5    1
    40    12    14    1
    41     5     4    1
    42     4     1    1
    43     1     2    2
    44     1     3    1
    45     1    24    1
    46    24    25    1
    47    25    26    2
    48    25    27    1
@<TRIPOS>MOLECULE
UD1
 46 48 0 0 0
SMALL
GASTEIGER

@<TRIPOS>ATOM
      1 P          14.3622   71.1267   -1.6585 P.3     1  UNL1        0.2189
      2 O          15.2362   71.7916   -0.6672 O.2     1  UNL1       -0.5170
      3 O          12.8610   71.6909   -1.5143 O.3     1  UNL1       -0.4371
      4 O          14.3649   69.5381   -1.3955 O.3     1  UNL1       -0.3112
      5 C          14.3596   69.3531    0.0208 C.3     1  UNL1        0.1811
      6 C          13.1921   66.7719    2.2348 C.3     1  UNL1        0.2383
      7 C          11.9022   67.4792    1.7488 C.3     1  UNL1        0.1895
      8 O          10.8057   66.5656    1.6998 O.3     1  UNL1       -0.3779
      9 C          12.3016   67.9413    0.3233 C.3     1  UNL1        0.1713
     10 C          13.8422   67.9522    0.3512 C.3     1  UNL1        0.1764
     11 O          14.2505   67.5806    1.6788 O.3     1  UNL1       -0.3308
     12 O          11.8190   67.0183   -0.6554 O.3     1  UNL1       -0.3794
     13 H          10.0376   67.0661    1.3919 H       1  UNL1        0.2106
     14 H          10.8552   67.0125   -0.5826 H       1  UNL1        0.2105
     15 N          13.2614   66.7649    3.6965 N.ar    1  UNL1       -0.2551
     16 C          12.8885   65.6664    4.3760 C.ar    1  UNL1        0.3323
     17 N          12.9456   65.6304    5.7205 N.ar    1  UNL1       -0.2743
     18 C          13.3720   66.7067    6.4115 C.ar    1  UNL1        0.2626
     19 C          13.7619   67.8718    5.7091 C.ar    1  UNL1        0.0795
     20 C          13.6997   67.8789    4.3603 C.ar    1  UNL1        0.0869
     21 O          12.5018   64.6876    3.7668 O.2     1  UNL1       -0.2464
     22 O          13.4194   66.6769    7.6274 O.2     1  UNL1       -0.2670
     23 H          12.6772   64.8280    6.1941 H       1  UNL1        0.1734
     24 O          14.9087   71.4258   -3.1419 O.3     1  UNL1       -0.2703
     25 P          16.2561   70.5650   -3.3233 P.3     1  UNL1        0.2208
     26 O          15.9107   69.1951   -3.7627 O.2     1  UNL1       -0.5170
     27 O          17.0423   70.4954   -1.9200 O.3     1  UNL1       -0.4371
     28 O          17.1952   71.2623   -4.4289 O.3     1  UNL1       -0.2865
     29 C          18.1708   70.2926   -4.8151 C.3     1  UNL1        0.2611
     30 C          19.5675   70.8227   -4.4861 C.3     1  UNL1        0.1582
     31 C          19.7914   72.1426   -5.2326 C.3     1  UNL1        0.1625
     32 C          19.5142   71.9161   -6.7226 C.3     1  UNL1        0.1686
     33 C          18.1201   71.3063   -6.8831 C.3     1  UNL1        0.1760
     34 O          21.1426   72.5710   -5.0532 O.3     1  UNL1       -0.3801
     35 O          19.5739   73.1646   -7.4150 O.3     1  UNL1       -0.3794
     36 O          18.0653   70.0461   -6.2157 O.3     1  UNL1       -0.3263
     37 H          21.2388   73.4023   -5.5378 H       1  UNL1        0.2105
     38 H          19.3932   72.9765   -8.3469 H       1  UNL1        0.2105
     39 C          20.8367   70.7926   -2.4071 C.2     1  UNL1        0.2231
     40 C          20.9498   71.0264   -0.9222 C.3     1  UNL1        0.0946
     41 N          19.6780   71.0500   -3.0437 N.am    1  UNL1       -0.2994
     42 O          21.7889   70.3721   -3.0288 O.2     1  UNL1       -0.2751
     43 H          18.9157   71.3864   -2.5463 H       1  UNL1        0.1496
     44 C          17.8204   71.1061   -8.3701 C.3     1  UNL1        0.1693
     45 O          16.4870   70.6166   -8.5261 O.3     1  UNL1       -0.3794
     46 H          16.3393   70.5042   -9.4749 H       1  UNL1        0.2105
@<TRIPOS>BOND
     1    29    30    1
     2    29    28    1
     3    29    36    1
     4    30    31    1
     5    30    41    1
     6    31    32    1
     7    31    34    1
     8    32    33    1
     9    32    35    1
    10    33    44    1
    11    33    36    1
    12    44    45    1
    13    39    40    1
    14    39    41   am
    15    39    42    2
    16    41    43    1
    17    28    25    1
    18    34    37    1
    19    35    38    1
    20    45    46    1
    21    15    16   ar
    22    15    20   ar
    23    15     6    1
    24    16    17   ar
    25    16    21    2
    26    17    18   ar
    27    17    23    1
    28    18    19   ar
    29    18    22    2
    30    19    20   ar
    31     6     7    1
    32     6    11    1
    33     7     8    1
    34     7     9    1
    35     8    13    1
    36     9    10    1
    37     9    12    1
    38    10    11    1
    39    10     5    1
    40    12    14    1
    41     5     4    1
    42     4     1    1
    43     1     2    2
    44     1     3    1
    45     1    24    1
    46    24    25    1
    47    25    26    2
    48    25    27    1
@<TRIPOS>MOLECULE
UD1
 46 48 0 0 0
SMALL
GASTEIGER

@<TRIPOS>ATOM
      1 P          16.2183   69.6083   -2.6409 P.3     1  UNL1        0.2189
      2 O          15.8663   69.1907   -4.0159 O.2     1  UNL1       -0.5170
      3 O          16.9063   68.3763   -1.8654 O.3     1  UNL1       -0.4371
      4 O          14.8841   70.0559   -1.8584 O.3     1  UNL1       -0.3112
      5 C          14.6970   69.1235   -0.7926 C.3     1  UNL1        0.1811
      6 C          11.8749   68.0657    1.1682 C.3     1  UNL1        0.2383
      7 C          12.1635   69.5094    1.6505 C.3     1  UNL1        0.1895
      8 O          10.9626   70.1572    2.0719 O.3     1  UNL1       -0.3779
      9 C          12.7303   70.1738    0.3689 C.3     1  UNL1        0.1713
     10 C          13.2040   68.9857   -0.4905 C.3     1  UNL1        0.1764
     11 O          12.9669   67.7865    0.2664 O.3     1  UNL1       -0.3308
     12 O          11.7090   70.9118   -0.3056 O.3     1  UNL1       -0.3794
     13 H          11.2102   71.0470    2.3590 H       1  UNL1        0.2106
     14 H          11.4133   71.6008    0.3042 H       1  UNL1        0.2105
     15 N          11.8830   67.1306    2.2938 N.ar    1  UNL1       -0.2551
     16 C          10.7316   66.8321    2.9203 C.ar    1  UNL1        0.3323
     17 N          10.7087   65.9724    3.9559 N.ar    1  UNL1       -0.2743
     18 C          11.8501   65.4005    4.3896 C.ar    1  UNL1        0.2626
     19 C          13.0702   65.7105    3.7429 C.ar    1  UNL1        0.0795
     20 C          13.0637   66.5720    2.7032 C.ar    1  UNL1        0.0869
     21 O           9.6939   67.3398    2.5407 O.2     1  UNL1       -0.2464
     22 O          11.8313   64.6267    5.3289 O.2     1  UNL1       -0.2670
     23 H           9.8685   65.7649    4.3931 H       1  UNL1        0.1734
     24 O          17.2449   70.8457   -2.7021 O.3     1  UNL1       -0.2703
     25 P          18.3632   70.4683   -3.7959 P.3     1  UNL1        0.2208
     26 O          18.8518   69.0940   -3.5477 O.2     1  UNL1       -0.5170
     27 O          19.5926   71.5020   -3.6862 O.3     1  UNL1       -0.4371
     28 O          17.7234   70.5521   -5.2704 O.3     1  UNL1       -0.2865
     29 C          17.9747   71.8717   -5.7568 C.3     1  UNL1        0.2611
     30 C          16.7497   72.3679   -6.5270 C.3     1  UNL1        0.1582
     31 C          16.4650   71.4084   -7.6879 C.3     1  UNL1        0.1625
     32 C          17.7415   71.2555   -8.5217 C.3     1  UNL1        0.1686
     33 C          18.8912   70.8402   -7.6014 C.3     1  UNL1        0.1760
     34 O          15.4179   71.9393   -8.5022 O.3     1  UNL1       -0.3801
     35 O          17.5423   70.2543   -9.5215 O.3     1  UNL1       -0.3794
     36 O          19.1109   71.8509   -6.6182 O.3     1  UNL1       -0.3263
     37 H          15.2718   71.3054   -9.2179 H       1  UNL1        0.2105
     38 H          18.3683   70.1901  -10.0216 H       1  UNL1        0.2105
     39 C          14.7363   73.4498   -5.6843 C.2     1  UNL1        0.2231
     40 C          13.5452   73.4940   -4.7615 C.3     1  UNL1        0.0946
     41 N          15.5922   72.4111   -5.6311 N.am    1  UNL1       -0.2994
     42 O          14.9248   74.3499   -6.4746 O.2     1  UNL1       -0.2751
     43 H          15.4417   71.6908   -4.9986 H       1  UNL1        0.1496
     44 C          20.1640   70.6532   -8.4298 C.3     1  UNL1        0.1693
     45 O          20.2296   69.3073   -8.9057 O.3     1  UNL1       -0.3794
     46 H          21.0441   69.2322   -9.4210 H       1  UNL1        0.2105
@<TRIPOS>BOND
     1    29    30    1
     2    29    28    1
     3    29    36    1
     4    30    31    1
     5    30    41    1
     6    31    32    1
     7    31    34    1
     8    32    33    1
     9    32    35    1
    10    33    44    1
    11    33    36    1
    12    44    45    1
    13    39    40    1
    14    39    41   am
    15    39    42    2
    16    41    43    1
    17    28    25    1
    18    34    37    1
    19    35    38    1
    20    45    46    1
    21    15    16   ar
    22    15    20   ar
    23    15     6    1
    24    16    17   ar
    25    16    21    2
    26    17    18   ar
    27    17    23    1
    28    18    19   ar
    29    18    22    2
    30    19    20   ar
    31     6     7    1
    32     6    11    1
    33     7     8    1
    34     7     9    1
    35     8    13    1
    36     9    10    1
    37     9    12    1
    38    10    11    1
    39    10     5    1
    40    12    14    1
    41     5     4    1
    42     4     1    1
    43     1     2    2
    44     1     3    1
    45     1    24    1
    46    24    25    1
    47    25    26    2
    48    25    27    1
@<TRIPOS>MOLECULE
UD1
 46 48 0 0 0
SMALL
GASTEIGER

@<TRIPOS>ATOM
      1 P          21.3479   71.4567   -0.3100 P.3     1  UNL1        0.2189
      2 O          22.5861   70.6516   -0.3962 O.2     1  UNL1       -0.5170
      3 O          21.6474   72.9572   -0.8115 O.3     1  UNL1       -0.4371
      4 O          20.8379   71.4940    1.2169 O.3     1  UNL1       -0.3112
      5 C          21.2901   72.7290    1.7742 C.3     1  UNL1        0.1811
      6 C          22.2985   73.4753    5.1437 C.3     1  UNL1        0.2383
      7 C          21.3266   74.6214    4.7665 C.3     1  UNL1        0.1895
      8 O          20.6288   75.0992    5.9172 O.3     1  UNL1       -0.3779
      9 C          20.3561   73.9153    3.7844 C.3     1  UNL1        0.1713
     10 C          21.1463   72.6857    3.2963 C.3     1  UNL1        0.1764
     11 O          22.4448   72.7375    3.9117 O.3     1  UNL1       -0.3308
     12 O          19.1628   73.5147    4.4614 O.3     1  UNL1       -0.3794
     13 H          20.0437   75.8079    5.6157 H       1  UNL1        0.2106
     14 H          18.7463   74.3210    4.7937 H       1  UNL1        0.2105
     15 N          23.5883   74.0108    5.5808 N.ar    1  UNL1       -0.2551
     16 C          23.8245   74.1926    6.8918 C.ar    1  UNL1        0.3323
     17 N          25.0031   74.6799    7.3227 N.ar    1  UNL1       -0.2743
     18 C          25.9684   75.0040    6.4388 C.ar    1  UNL1        0.2626
     19 C          25.7309   74.8232    5.0554 C.ar    1  UNL1        0.0795
     20 C          24.5416   74.3277    4.6510 C.ar    1  UNL1        0.0869
     21 O          22.9638   73.9050    7.7011 O.2     1  UNL1       -0.2464
     22 O          27.0326   75.4490    6.8270 O.2     1  UNL1       -0.2670
     23 H          25.1581   74.8001    8.2723 H       1  UNL1        0.1734
     24 O          20.2124   70.7960   -1.2389 O.3     1  UNL1       -0.2703
     25 P          20.3190   71.5055   -2.6792 P.3     1  UNL1        0.2208
     26 O          21.6875   71.3324   -3.2141 O.2     1  UNL1       -0.5170
     27 O          19.9967   73.0759   -2.5298 O.3     1  UNL1       -0.4371
     28 O          19.2596   70.8354   -3.6887 O.3     1  UNL1       -0.2865
     29 C          18.4956   71.9014   -4.2554 C.3     1  UNL1        0.2611
     30 C          17.0858   71.3994   -4.5724 C.3     1  UNL1        0.1582
     31 C          17.1809   70.2226   -5.5501 C.3     1  UNL1        0.1625
     32 C          18.0059   70.6602   -6.7650 C.3     1  UNL1        0.1686
     33 C          19.3477   71.2153   -6.2826 C.3     1  UNL1        0.1760
     34 O          15.8694   69.8416   -5.9697 O.3     1  UNL1       -0.3801
     35 O          18.2310   69.5372   -7.6194 O.3     1  UNL1       -0.3794
     36 O          19.1274   72.3538   -5.4510 O.3     1  UNL1       -0.3263
     37 H          15.9762   69.1002   -6.5816 H       1  UNL1        0.2105
     38 H          18.7532   69.8564   -8.3691 H       1  UNL1        0.2105
     39 C          16.4821   69.6640   -2.9730 C.2     1  UNL1        0.2231
     40 C          15.8095   69.2118   -1.7020 C.3     1  UNL1        0.0946
     41 N          16.4331   70.9597   -3.3376 N.am    1  UNL1       -0.2994
     42 O          17.0671   68.8610   -3.6681 O.2     1  UNL1       -0.2751
     43 H          15.9648   71.6025   -2.7815 H       1  UNL1        0.1496
     44 C          20.1926   71.6252   -7.4906 C.3     1  UNL1        0.1693
     45 O          21.1245   70.5857   -7.7954 O.3     1  UNL1       -0.3794
     46 H          21.6356   70.8835   -8.5601 H       1  UNL1        0.2105
@<TRIPOS>BOND
     1    29    30    1
     2    29    28    1
     3    29    36    1
     4    30    31    1
     5    30    41    1
     6    31    32    1
     7    31    34    1
     8    32    33    1
     9    32    35    1
    10    33    44    1
    11    33    36    1
    12    44    45    1
    13    39    40    1
    14    39    41   am
    15    39    42    2
    16    41    43    1
    17    28    25    1
    18    34    37    1
    19    35    38    1
    20    45    46    1
    21    15    16   ar
    22    15    20   ar
    23    15     6    1
    24    16    17   ar
    25    16    21    2
    26    17    18   ar
    27    17    23    1
    28    18    19   ar
    29    18    22    2
    30    19    20   ar
    31     6     7    1
    32     6    11    1
    33     7     8    1
    34     7     9    1
    35     8    13    1
    36     9    10    1
    37     9    12    1
    38    10    11    1
    39    10     5    1
    40    12    14    1
    41     5     4    1
    42     4     1    1
    43     1     2    2
    44     1     3    1
    45     1    24    1
    46    24    25    1
    47    25    26    2
    48    25    27    1
@<TRIPOS>MOLECULE
UD1
 46 48 0 0 0
SMALL
GASTEIGER

@<TRIPOS>ATOM
      1 P          16.6866   69.5725   -2.5861 P.3     1  UNL1        0.2189
      2 O          16.4948   71.0266   -2.3924 O.2     1  UNL1       -0.5170
      3 O          16.1193   69.1440   -4.0308 O.3     1  UNL1       -0.4371
      4 O          15.8918   68.7695   -1.4388 O.3     1  UNL1       -0.3112
      5 C          15.0969   69.7273   -0.7381 C.3     1  UNL1        0.1811
      6 C          12.2697   68.0482    0.7159 C.3     1  UNL1        0.2383
      7 C          12.1397   69.5150    1.1972 C.3     1  UNL1        0.1895
      8 O          10.7693   69.8748    1.3758 O.3     1  UNL1       -0.3779
      9 C          12.7693   70.3016    0.0182 C.3     1  UNL1        0.1713
     10 C          13.6418   69.2575   -0.7049 C.3     1  UNL1        0.1764
     11 O          13.5417   68.0281    0.0340 O.3     1  UNL1       -0.3308
     12 O          11.7504   70.8002   -0.8513 O.3     1  UNL1       -0.3794
     13 H          10.7578   70.7945    1.6749 H       1  UNL1        0.2106
     14 H          11.2040   71.4000   -0.3261 H       1  UNL1        0.2105
     15 N          12.2791   67.1273    1.8531 N.ar    1  UNL1       -0.2551
     16 C          13.4488   66.7681    2.4099 C.ar    1  UNL1        0.3323
     17 N          13.4873   65.9257    3.4593 N.ar    1  UNL1       -0.2743
     18 C          12.3452   65.4186    3.9657 C.ar    1  UNL1        0.2626
     19 C          11.1072   65.7836    3.3854 C.ar    1  UNL1        0.0795
     20 C          11.0972   66.6345    2.3369 C.ar    1  UNL1        0.0869
     21 O          14.4874   67.2171    1.9645 O.2     1  UNL1       -0.2464
     22 O          12.3791   64.6532    4.9114 O.2     1  UNL1       -0.2670
     23 H          14.3396   65.6811    3.8515 H       1  UNL1        0.1734
     24 O          18.2544   69.2216   -2.4985 O.3     1  UNL1       -0.2703
     25 P          19.0524   70.6028   -2.7098 P.3     1  UNL1        0.2208
     26 O          20.5078   70.3369   -2.7072 O.2     1  UNL1       -0.5170
     27 O          18.6914   71.6202   -1.5153 O.3     1  UNL1       -0.4371
     28 O          18.6294   71.2586   -4.1175 O.3     1  UNL1       -0.2865
     29 C          19.4281   70.6324   -5.1231 C.3     1  UNL1        0.2611
     30 C          20.2959   71.6889   -5.8092 C.3     1  UNL1        0.1582
     31 C          19.3885   72.7587   -6.4272 C.3     1  UNL1        0.1625
     32 C          18.3635   72.0681   -7.3331 C.3     1  UNL1        0.1686
     33 C          17.6392   70.9849   -6.5310 C.3     1  UNL1        0.1760
     34 O          20.1765   73.6686   -7.1968 O.3     1  UNL1       -0.3801
     35 O          17.4170   73.0297   -7.8036 O.3     1  UNL1       -0.3794
     36 O          18.5781   70.0081   -6.0828 O.3     1  UNL1       -0.3263
     37 H          19.5673   74.3228   -7.5659 H       1  UNL1        0.2105
     38 H          16.7915   72.5535   -8.3679 H       1  UNL1        0.2105
     39 C          22.4662   72.5716   -5.1421 C.2     1  UNL1        0.2231
     40 C          23.3802   73.2092   -4.1271 C.3     1  UNL1        0.0946
     41 N          21.1841   72.3088   -4.8237 N.am    1  UNL1       -0.2994
     42 O          22.8852   72.2944   -6.2456 O.2     1  UNL1       -0.2751
     43 H          20.8486   72.5303   -3.9405 H       1  UNL1        0.1496
     44 C          16.5903   70.3109   -7.4179 C.3     1  UNL1        0.1693
     45 O          16.9112   70.5371   -8.7919 O.3     1  UNL1       -0.3794
     46 H          16.2274   70.0974   -9.3150 H       1  UNL1        0.2105
@<TRIPOS>BOND
     1    29    30    1
     2    29    28    1
     3    29    36    1
     4    30    31    1
     5    30    41    1
     6    31    32    1
     7    31    34    1
     8    32    33    1
     9    32    35    1
    10    33    44    1
    11    33    36    1
    12    44    45    1
    13    39    40    1
    14    39    41   am
    15    39    42    2
    16    41    43    1
    17    28    25    1
    18    34    37    1
    19    35    38    1
    20    45    46    1
    21    15    16   ar
    22    15    20   ar
    23    15     6    1
    24    16    17   ar
    25    16    21    2
    26    17    18   ar
    27    17    23    1
    28    18    19   ar
    29    18    22    2
    30    19    20   ar
    31     6     7    1
    32     6    11    1
    33     7     8    1
    34     7     9    1
    35     8    13    1
    36     9    10    1
    37     9    12    1
    38    10    11    1
    39    10     5    1
    40    12    14    1
    41     5     4    1
    42     4     1    1
    43     1     2    2
    44     1     3    1
    45     1    24    1
    46    24    25    1
    47    25    26    2
    48    25    27    1
@<TRIPOS>MOLECULE
UD1
 46 48 0 0 0
SMALL
GASTEIGER

@<TRIPOS>ATOM
      1 P          21.5658   73.1953   -6.5682 P.3     1  UNL1        0.2189
      2 O          21.9344   74.5809   -6.9328 O.2     1  UNL1       -0.5170
      3 O          22.8289   72.2246   -6.8021 O.3     1  UNL1       -0.4371
      4 O          20.3377   72.7075   -7.4884 O.3     1  UNL1       -0.3112
      5 C          20.7522   71.4974   -8.1243 C.3     1  UNL1        0.1811
      6 C          17.6465   70.1210   -6.9463 C.3     1  UNL1        0.2383
      7 C          17.2313   71.1329   -8.0436 C.3     1  UNL1        0.1895
      8 O          16.0321   70.7151   -8.6968 O.3     1  UNL1       -0.3779
      9 C          18.4394   71.0746   -9.0143 C.3     1  UNL1        0.1713
     10 C          19.5850   70.5094   -8.1526 C.3     1  UNL1        0.1764
     11 O          19.0706   70.3221   -6.8231 O.3     1  UNL1       -0.3308
     12 O          18.1564   70.2063  -10.1137 O.3     1  UNL1       -0.3794
     13 H          15.8289   71.3847   -9.3644 H       1  UNL1        0.2106
     14 H          17.3955   70.5813  -10.5769 H       1  UNL1        0.2105
     15 N          16.9719   70.4194   -5.6825 N.ar    1  UNL1       -0.2551
     16 C          16.4818   69.4148   -4.9354 C.ar    1  UNL1        0.3323
     17 N          15.8601   69.6596   -3.7668 N.ar    1  UNL1       -0.2743
     18 C          15.7102   70.9260   -3.3290 C.ar    1  UNL1        0.2626
     19 C          16.2161   71.9935   -4.1085 C.ar    1  UNL1        0.0795
     20 C          16.8401   71.7193   -5.2741 C.ar    1  UNL1        0.0869
     21 O          16.6093   68.2672   -5.3168 O.2     1  UNL1       -0.2464
     22 O          15.1441   71.1488   -2.2749 O.2     1  UNL1       -0.2670
     23 H          15.5170   68.9225   -3.2384 H       1  UNL1        0.1734
     24 O          21.1290   73.1457   -5.0204 O.3     1  UNL1       -0.2703
     25 P          22.4261   73.5502   -4.1582 P.3     1  UNL1        0.2208
     26 O          22.8095   74.9450   -4.4689 O.2     1  UNL1       -0.5170
     27 O          23.6449   72.5647   -4.5264 O.3     1  UNL1       -0.4371
     28 O          22.0902   73.4229   -2.5893 O.3     1  UNL1       -0.2865
     29 C          23.1444   72.6593   -2.0004 C.3     1  UNL1        0.2611
     30 C          22.5602   71.3936   -1.3706 C.3     1  UNL1        0.1582
     31 C          21.5246   71.7920   -0.3130 C.3     1  UNL1        0.1625
     32 C          22.1793   72.7675    0.6709 C.3     1  UNL1        0.1686
     33 C          22.7896   73.9313   -0.1129 C.3     1  UNL1        0.1760
     34 O          21.0813   70.6273    0.3858 O.3     1  UNL1       -0.3801
     35 O          21.1936   73.2650    1.5778 O.3     1  UNL1       -0.3794
     36 O          23.7940   73.4409   -1.0001 O.3     1  UNL1       -0.3263
     37 H          20.4327   70.9234    1.0392 H       1  UNL1        0.2105
     38 H          21.6472   73.8743    2.1774 H       1  UNL1        0.2105
     39 C          20.5883   70.6780   -2.6091 C.2     1  UNL1        0.2231
     40 C          19.9261   69.8432   -3.6753 C.3     1  UNL1        0.0946
     41 N          21.9165   70.5831   -2.4065 N.am    1  UNL1       -0.2994
     42 O          19.9251   71.4351   -1.9328 O.2     1  UNL1       -0.2751
     43 H          22.4474   69.9772   -2.9474 H       1  UNL1        0.1496
     44 C          23.4179   74.9280    0.8633 C.3     1  UNL1        0.1693
     45 O          23.8477   74.2380    2.0386 O.3     1  UNL1       -0.3794
     46 H          24.2361   74.9006    2.6257 H       1  UNL1        0.2105
@<TRIPOS>BOND
     1    29    30    1
     2    29    28    1
     3    29    36    1
     4    30    31    1
     5    30    41    1
     6    31    32    1
     7    31    34    1
     8    32    33    1
     9    32    35    1
    10    33    44    1
    11    33    36    1
    12    44    45    1
    13    39    40    1
    14    39    41   am
    15    39    42    2
    16    41    43    1
    17    28    25    1
    18    34    37    1
    19    35    38    1
    20    45    46    1
    21    15    16   ar
    22    15    20   ar
    23    15     6    1
    24    16    17   ar
    25    16    21    2
    26    17    18   ar
    27    17    23    1
    28    18    19   ar
    29    18    22    2
    30    19    20   ar
    31     6     7    1
    32     6    11    1
    33     7     8    1
    34     7     9    1
    35     8    13    1
    36     9    10    1
    37     9    12    1
    38    10    11    1
    39    10     5    1
    40    12    14    1
    41     5     4    1
    42     4     1    1
    43     1     2    2
    44     1     3    1
    45     1    24    1
    46    24    25    1
    47    25    26    2
    48    25    27    1
@<TRIPOS>MOLECULE
UD1
 46 48 0 0 0
SMALL
GASTEIGER

@<TRIPOS>ATOM
      1 P          21.4706   71.1848   -0.4831 P.3     1  UNL1        0.2189
      2 O          22.3971   70.7165   -1.5372 O.2     1  UNL1       -0.5170
      3 O          21.5832   70.2172    0.7990 O.3     1  UNL1       -0.4371
      4 O          19.9617   71.1567   -1.0445 O.3     1  UNL1       -0.3112
      5 C          20.0381   70.7717   -2.4179 C.3     1  UNL1        0.1811
      6 C          17.7335   70.6897   -5.1763 C.3     1  UNL1        0.2383
      7 C          17.6534   69.2700   -4.5612 C.3     1  UNL1        0.1895
      8 O          16.3516   68.7097   -4.7366 O.3     1  UNL1       -0.3779
      9 C          17.9389   69.5480   -3.0624 C.3     1  UNL1        0.1713
     10 C          18.6592   70.9102   -3.0649 C.3     1  UNL1        0.1764
     11 O          18.8012   71.3186   -4.4361 O.3     1  UNL1       -0.3308
     12 O          16.7164   69.6225   -2.3257 O.3     1  UNL1       -0.3794
     13 H          16.3686   67.8303   -4.3343 H       1  UNL1        0.2106
     14 H          16.2855   68.7617   -2.4119 H       1  UNL1        0.2105
     15 N          18.0634   70.6209   -6.6004 N.ar    1  UNL1       -0.2551
     16 C          17.0763   70.5539   -7.5106 C.ar    1  UNL1        0.3323
     17 N          17.3504   70.4936   -8.8272 N.ar    1  UNL1       -0.2743
     18 C          18.6288   70.4903   -9.2556 C.ar    1  UNL1        0.2626
     19 C          19.6779   70.5545   -8.3079 C.ar    1  UNL1        0.0795
     20 C          19.3746   70.6195   -6.9937 C.ar    1  UNL1        0.0869
     21 O          15.9183   70.5560   -7.1397 O.2     1  UNL1       -0.2464
     22 O          18.8779   70.4311  -10.4455 O.2     1  UNL1       -0.2670
     23 H          16.6258   70.4505   -9.4700 H       1  UNL1        0.1734
     24 O          21.8570   72.6877   -0.0580 O.3     1  UNL1       -0.2703
     25 P          21.0769   72.9976    1.3150 P.3     1  UNL1        0.2208
     26 O          20.5789   71.7313    1.8957 O.2     1  UNL1       -0.5170
     27 O          19.8336   73.9763    1.0175 O.3     1  UNL1       -0.4371
     28 O          22.0796   73.7071    2.3550 O.3     1  UNL1       -0.2865
     29 C          22.3239   72.7666    3.4024 C.3     1  UNL1        0.2611
     30 C          22.9388   73.4930    4.6000 C.3     1  UNL1        0.1582
     31 C          24.2444   74.1661    4.1617 C.3     1  UNL1        0.1625
     32 C          25.1433   73.1121    3.5067 C.3     1  UNL1        0.1686
     33 C          24.3629   72.4164    2.3893 C.3     1  UNL1        0.1760
     34 O          24.9034   74.7206    5.3017 O.3     1  UNL1       -0.3801
     35 O          26.3018   73.7450    2.9600 O.3     1  UNL1       -0.3794
     36 O          23.2198   71.7600    2.9361 O.3     1  UNL1       -0.3263
     37 H          25.7172   75.1330    4.9809 H       1  UNL1        0.2105
     38 H          26.8382   73.0472    2.5578 H       1  UNL1        0.2105
     39 C          21.8213   74.6738    6.4142 C.2     1  UNL1        0.2231
     40 C          20.8585   75.7185    6.9181 C.3     1  UNL1        0.0946
     41 N          22.0040   74.5081    5.0901 N.am    1  UNL1       -0.2994
     42 O          22.4312   73.9816    7.2010 O.2     1  UNL1       -0.2751
     43 H          21.5159   75.0618    4.4602 H       1  UNL1        0.1496
     44 C          25.2627   71.3840    1.7070 C.3     1  UNL1        0.1693
     45 O          24.5591   70.1463    1.5829 O.3     1  UNL1       -0.3794
     46 H          25.1600   69.5252    1.1496 H       1  UNL1        0.2105
@<TRIPOS>BOND
     1    29    30    1
     2    29    28    1
     3    29    36    1
     4    30    31    1
     5    30    41    1
     6    31    32    1
     7    31    34    1
     8    32    33    1
     9    32    35    1
    10    33    44    1
    11    33    36    1
    12    44    45    1
    13    39    40    1
    14    39    41   am
    15    39    42    2
    16    41    43    1
    17    28    25    1
    18    34    37    1
    19    35    38    1
    20    45    46    1
    21    15    16   ar
    22    15    20   ar
    23    15     6    1
    24    16    17   ar
    25    16    21    2
    26    17    18   ar
    27    17    23    1
    28    18    19   ar
    29    18    22    2
    30    19    20   ar
    31     6     7    1
    32     6    11    1
    33     7     8    1
    34     7     9    1
    35     8    13    1
    36     9    10    1
    37     9    12    1
    38    10    11    1
    39    10     5    1
    40    12    14    1
    41     5     4    1
    42     4     1    1
    43     1     2    2
    44     1     3    1
    45     1    24    1
    46    24    25    1
    47    25    26    2
    48    25    27    1
