@<TRIPOS>MOLECULE
UDP-glaA
 43 45 0 0 0
SMALL
GASTEIGER

@<TRIPOS>ATOM
      1 P          23.0266   72.0444   -3.1385 P.3     1  UNL1        0.2189
      2 O          23.6969   73.0166   -4.2443 O.3     1  UNL1       -0.4371
      3 O          23.4983   70.6203   -3.1785 O.2     1  UNL1       -0.5170
      4 O          21.4369   72.2641   -3.3388 O.3     1  UNL1       -0.3112
      5 C          20.6280   71.1360   -3.6260 C.3     1  UNL1        0.1811
      6 O          18.7072   72.0517   -4.7423 O.3     1  UNL1       -0.3308
      7 O          17.0800   70.8454   -2.5313 O.3     1  UNL1       -0.3794
      8 O          16.7351   69.0625   -4.5655 O.3     1  UNL1       -0.3779
      9 C          18.2558   70.3423   -3.1655 C.3     1  UNL1        0.1713
     10 C          17.9253   69.8233   -4.5489 C.3     1  UNL1        0.1895
     11 C          19.1639   71.5246   -3.4771 C.3     1  UNL1        0.1764
     12 C          17.8073   71.1095   -5.3488 C.3     1  UNL1        0.2383
     13 H          17.3469   71.2015   -1.6667 H       1  UNL1        0.2105
     14 H          16.8533   68.3207   -3.9475 H       1  UNL1        0.2106
     15 O          16.0080   70.3662   -7.3946 O.2     1  UNL1       -0.2464
     16 O          19.3216   70.4648  -10.5961 O.2     1  UNL1       -0.2670
     17 N          18.1725   70.9344   -6.7255 N.ar    1  UNL1       -0.2551
     18 N          17.6593   70.4153   -8.9874 N.ar    1  UNL1       -0.2743
     19 C          17.1927   70.5588   -7.6741 C.ar    1  UNL1        0.3323
     20 C          19.4895   71.1342   -7.1241 C.ar    1  UNL1        0.0869
     21 C          19.9186   70.9939   -8.3803 C.ar    1  UNL1        0.0795
     22 C          18.9590   70.6028   -9.4318 C.ar    1  UNL1        0.2626
     23 H          16.9725   70.1452   -9.6862 H       1  UNL1        0.1734
     24 O          23.3273   72.8147   -1.7488 O.3     1  UNL1       -0.2703
     25 P          23.4114   74.3924   -1.4077 P.3     1  UNL1        0.2208
     26 O          22.1634   75.0160   -2.2263 O.3     1  UNL1       -0.4371
     27 O          24.7377   75.0215   -1.7255 O.2     1  UNL1       -0.5170
     28 O          22.9772   74.4994    0.1427 O.3     1  UNL1       -0.2858
     29 O          21.6642   72.5663    0.5151 O.3     1  UNL1       -0.3226
     30 O          21.8779   74.2209    4.3225 O.3     1  UNL1       -0.3794
     31 O          21.4958   75.9242    1.9862 O.3     1  UNL1       -0.3775
     32 O          20.9626   71.8648    3.2085 O.3     1  UNL1       -0.3792
     33 C          22.2960   73.8688    3.0067 C.3     1  UNL1        0.1718
     34 C          21.3718   74.5061    1.9637 C.3     1  UNL1        0.1968
     35 C          22.2680   72.3441    2.8695 C.3     1  UNL1        0.1723
     36 C          21.7075   73.9965    0.5566 C.3     1  UNL1        0.2706
     37 C          22.5754   71.9530    1.4256 C.3     1  UNL1        0.1830
     38 H          22.4882   73.7947    4.9482 H       1  UNL1        0.2105
     39 H          20.9013   76.2815    1.3052 H       1  UNL1        0.2106
     40 H          20.3547   72.0843    2.4822 H       1  UNL1        0.2106
     41 O          23.5021   69.8176    1.7178 O.co2   1  UNL1       -0.5466
     42 O          21.4813   69.9378    0.6696 O.co2   1  UNL1       -0.5466
     43 C          22.4318   70.4791    1.2155 C.2     1  UNL1        0.0799
@<TRIPOS>UNITY_ATOM_ATTR
41 1
charge -1
@<TRIPOS>BOND
     1     1     4    1
     2     1    24    1
     3     1     2    1
     4     1     3    2
     5    25    28    1
     6    25    24    1
     7    25    26    1
     8    25    27    2
     9     6    11    1
    10     6    12    1
    11    29    36    1
    12    29    37    1
    13     7     9    1
    14     7    13    1
    15     8    10    1
    16     8    14    1
    17     4     5    1
    18    28    36    1
    19    30    33    1
    20    30    38    1
    21    31    34    1
    22    31    39    1
    23    32    35    1
    24    32    40    1
    25    41    43   ar
    26    15    19    2
    27    42    43   ar
    28    16    22    2
    29    17    12    1
    30    17    19   ar
    31    17    20   ar
    32    18    19   ar
    33    18    22   ar
    34    18    23    1
    35     9    10    1
    36     9    11    1
    37    10    12    1
    38    11     5    1
    39    33    34    1
    40    33    35    1
    41    34    36    1
    42    35    37    1
    43    37    43    1
    44    20    21   ar
    45    21    22   ar
@<TRIPOS>MOLECULE
UDP-glaA
 43 45 0 0 0
SMALL
GASTEIGER

@<TRIPOS>ATOM
      1 P          21.2642   73.9373   -5.1629 P.3     1  UNL1        0.2189
      2 O          19.7504   74.0185   -4.5979 O.3     1  UNL1       -0.4371
      3 O          22.1063   75.1498   -4.8933 O.2     1  UNL1       -0.5170
      4 O          21.0783   73.5427   -6.7202 O.3     1  UNL1       -0.3112
      5 C          20.0630   74.1915   -7.4669 C.3     1  UNL1        0.1811
      6 O          19.6855   71.9088   -8.1156 O.3     1  UNL1       -0.3308
      7 O          17.9992   73.0144  -10.3350 O.3     1  UNL1       -0.3794
      8 O          16.1358   72.2324   -8.5041 O.3     1  UNL1       -0.3779
      9 C          18.1573   73.4894   -8.9981 C.3     1  UNL1        0.1713
     10 C          17.4177   72.5901   -8.0303 C.3     1  UNL1        0.1895
     11 C          19.6085   73.2710   -8.5906 C.3     1  UNL1        0.1764
     12 C          18.3551   71.3992   -7.9264 C.3     1  UNL1        0.2383
     13 H          18.5206   73.5970  -10.9131 H       1  UNL1        0.2105
     14 H          15.6367   73.0549   -8.6474 H       1  UNL1        0.2106
     15 O          16.0847   70.0215   -6.9659 O.2     1  UNL1       -0.2464
     16 O          18.1809   68.9575   -3.0020 O.2     1  UNL1       -0.2670
     17 N          18.2802   70.7524   -6.6476 N.ar    1  UNL1       -0.2551
     18 N          17.1299   69.4930   -4.9924 N.ar    1  UNL1       -0.2743
     19 C          17.0928   70.0884   -6.2602 C.ar    1  UNL1        0.3323
     20 C          19.3755   70.7801   -5.7915 C.ar    1  UNL1        0.0869
     21 C          19.3954   70.2072   -4.5861 C.ar    1  UNL1        0.0795
     22 C          18.1952   69.4942   -4.1054 C.ar    1  UNL1        0.2626
     23 H          16.2870   69.0105   -4.6927 H       1  UNL1        0.1734
     24 O          21.8232   72.5694   -4.5060 O.3     1  UNL1       -0.2703
     25 P          23.0331   72.3098   -3.4661 P.3     1  UNL1        0.2208
     26 O          24.2455   73.1862   -4.0812 O.3     1  UNL1       -0.4371
     27 O          23.3621   70.8599   -3.2534 O.2     1  UNL1       -0.5170
     28 O          22.5977   73.0980   -2.1271 O.3     1  UNL1       -0.2858
     29 O          21.5848   71.4860   -0.7219 O.3     1  UNL1       -0.3226
     30 O          21.4539   74.9047    1.6391 O.3     1  UNL1       -0.3794
     31 O          20.8737   75.0522   -1.2153 O.3     1  UNL1       -0.3775
     32 O          20.9337   72.2131    1.9774 O.3     1  UNL1       -0.3792
     33 C          21.9520   73.9772    0.6790 C.3     1  UNL1        0.1718
     34 C          20.9669   73.8331   -0.4860 C.3     1  UNL1        0.1968
     35 C          22.1590   72.6219    1.3607 C.3     1  UNL1        0.1723
     36 C          21.4096   72.7138   -1.4365 C.3     1  UNL1        0.2706
     37 C          22.5566   71.5787    0.3186 C.3     1  UNL1        0.1830
     38 H          22.1067   74.9623    2.3575 H       1  UNL1        0.2105
     39 H          20.2482   74.9101   -1.9457 H       1  UNL1        0.2106
     40 H          20.3171   71.9296    1.2813 H       1  UNL1        0.2106
     41 O          21.6278   69.4303    0.4780 O.co2   1  UNL1       -0.5466
     42 O          23.5098   69.8408    1.6973 O.co2   1  UNL1       -0.5466
     43 C          22.6434   70.2114    0.9186 C.2     1  UNL1        0.0799
@<TRIPOS>UNITY_ATOM_ATTR
41 1
charge -1
@<TRIPOS>BOND
     1     1     4    1
     2     1    24    1
     3     1     2    1
     4     1     3    2
     5    25    28    1
     6    25    24    1
     7    25    26    1
     8    25    27    2
     9     6    11    1
    10     6    12    1
    11    29    36    1
    12    29    37    1
    13     7     9    1
    14     7    13    1
    15     8    10    1
    16     8    14    1
    17     4     5    1
    18    28    36    1
    19    30    33    1
    20    30    38    1
    21    31    34    1
    22    31    39    1
    23    32    35    1
    24    32    40    1
    25    41    43   ar
    26    15    19    2
    27    42    43   ar
    28    16    22    2
    29    17    12    1
    30    17    19   ar
    31    17    20   ar
    32    18    19   ar
    33    18    22   ar
    34    18    23    1
    35     9    10    1
    36     9    11    1
    37    10    12    1
    38    11     5    1
    39    33    34    1
    40    33    35    1
    41    34    36    1
    42    35    37    1
    43    37    43    1
    44    20    21   ar
    45    21    22   ar
@<TRIPOS>MOLECULE
UDP-glaA
 43 45 0 0 0
SMALL
GASTEIGER

@<TRIPOS>ATOM
      1 P          22.6945   71.4692   -2.7145 P.3     1  UNL1        0.2189
      2 O          23.0542   72.9332   -3.3015 O.3     1  UNL1       -0.4371
      3 O          23.5160   70.3441   -3.2726 O.2     1  UNL1       -0.5170
      4 O          21.0961   71.3456   -2.9281 O.3     1  UNL1       -0.3112
      5 C          20.4359   72.3402   -3.6924 C.3     1  UNL1        0.1811
      6 O          18.2923   72.3773   -4.7777 O.3     1  UNL1       -0.3308
      7 O          17.2503   70.9488   -2.3559 O.3     1  UNL1       -0.3794
      8 O          17.5252   68.9286   -4.1666 O.3     1  UNL1       -0.3779
      9 C          18.5151   70.8212   -3.0053 C.3     1  UNL1        0.1713
     10 C          18.3641   70.0568   -4.3036 C.3     1  UNL1        0.1895
     11 C          18.9331   72.2015   -3.4949 C.3     1  UNL1        0.1764
     12 C          17.7773   71.1125   -5.2251 C.3     1  UNL1        0.2383
     13 H          17.3895   71.4773   -1.5516 H       1  UNL1        0.2105
     14 H          17.9136   68.3563   -3.4827 H       1  UNL1        0.2106
     15 O          15.9772   70.4213   -7.2885 O.2     1  UNL1       -0.2464
     16 O          19.3319   70.3730  -10.4480 O.2     1  UNL1       -0.2670
     17 N          18.1528   70.9137   -6.5958 N.ar    1  UNL1       -0.2551
     18 N          17.6490   70.3972   -8.8603 N.ar    1  UNL1       -0.2743
     19 C          17.1717   70.5676   -7.5541 C.ar    1  UNL1        0.3323
     20 C          19.4812   71.0615   -6.9789 C.ar    1  UNL1        0.0869
     21 C          19.9205   70.8961   -8.2285 C.ar    1  UNL1        0.0795
     22 C          18.9602   70.5330   -9.2895 C.ar    1  UNL1        0.2626
     23 H          16.9613   70.1476   -9.5660 H       1  UNL1        0.1734
     24 O          22.8324   71.6756   -1.1166 O.3     1  UNL1       -0.2703
     25 P          22.4744   70.6912    0.1145 P.3     1  UNL1        0.2208
     26 O          23.7279   69.6697    0.1494 O.3     1  UNL1       -0.4371
     27 O          21.1338   70.0239   -0.0003 O.2     1  UNL1       -0.5170
     28 O          22.6541   71.6037    1.4333 O.3     1  UNL1       -0.2858
     29 O          21.7901   72.4448    3.4692 O.3     1  UNL1       -0.3226
     30 O          21.2640   75.6707    0.9009 O.3     1  UNL1       -0.3794
     31 O          20.7209   72.9520   -0.0045 O.3     1  UNL1       -0.3775
     32 O          21.0204   75.2063    3.6129 O.3     1  UNL1       -0.3792
     33 C          21.8722   74.5108    1.4622 C.3     1  UNL1        0.1718
     34 C          20.9277   73.3086    1.3582 C.3     1  UNL1        0.1968
     35 C          22.2071   74.7884    2.9302 C.3     1  UNL1        0.1723
     36 C          21.5006   72.1009    2.1102 C.3     1  UNL1        0.2706
     37 C          22.7289   73.5127    3.5877 C.3     1  UNL1        0.1830
     38 H          21.8947   76.4053    0.9906 H       1  UNL1        0.2105
     39 H          20.1263   72.1832   -0.0197 H       1  UNL1        0.2106
     40 H          20.4487   74.4305    3.7415 H       1  UNL1        0.2106
     41 O          22.3172   72.7338    5.7620 O.co2   1  UNL1       -0.5466
     42 O          23.6039   74.6043    5.5556 O.co2   1  UNL1       -0.5466
     43 C          22.9468   73.7030    5.0551 C.2     1  UNL1        0.0799
@<TRIPOS>UNITY_ATOM_ATTR
41 1
charge -1
@<TRIPOS>BOND
     1     1     4    1
     2     1    24    1
     3     1     2    1
     4     1     3    2
     5    25    28    1
     6    25    24    1
     7    25    26    1
     8    25    27    2
     9     6    11    1
    10     6    12    1
    11    29    36    1
    12    29    37    1
    13     7     9    1
    14     7    13    1
    15     8    10    1
    16     8    14    1
    17     4     5    1
    18    28    36    1
    19    30    33    1
    20    30    38    1
    21    31    34    1
    22    31    39    1
    23    32    35    1
    24    32    40    1
    25    41    43   ar
    26    15    19    2
    27    42    43   ar
    28    16    22    2
    29    17    12    1
    30    17    19   ar
    31    17    20   ar
    32    18    19   ar
    33    18    22   ar
    34    18    23    1
    35     9    10    1
    36     9    11    1
    37    10    12    1
    38    11     5    1
    39    33    34    1
    40    33    35    1
    41    34    36    1
    42    35    37    1
    43    37    43    1
    44    20    21   ar
    45    21    22   ar
@<TRIPOS>MOLECULE
UDP-glaA
 43 45 0 0 0
SMALL
GASTEIGER

@<TRIPOS>ATOM
      1 P          22.7247   76.0035   -4.6308 P.3     1  UNL1        0.2189
      2 O          21.1486   76.2800   -4.8691 O.3     1  UNL1       -0.4371
      3 O          23.5691   77.2359   -4.4879 O.2     1  UNL1       -0.5170
      4 O          23.1327   75.0080   -5.8384 O.3     1  UNL1       -0.3112
      5 C          22.1441   74.1376   -6.3621 C.3     1  UNL1        0.1811
      6 O          21.2175   73.3576   -8.4375 O.3     1  UNL1       -0.3308
      7 O          21.3507   76.2098   -9.3533 O.3     1  UNL1       -0.3794
      8 O          18.7204   75.9176   -8.6959 O.3     1  UNL1       -0.3779
      9 C          21.0551   75.6902   -8.0569 C.3     1  UNL1        0.1713
     10 C          19.6616   75.0985   -8.0335 C.3     1  UNL1        0.1895
     11 C          21.9269   74.4616   -7.8333 C.3     1  UNL1        0.1764
     12 C          19.8722   73.7669   -8.7340 C.3     1  UNL1        0.2383
     13 H          22.2645   76.5416   -9.3310 H       1  UNL1        0.2105
     14 H          18.7251   76.7845   -8.2547 H       1  UNL1        0.2106
     15 O          19.1015   71.5080  -10.2435 O.2     1  UNL1       -0.2464
     16 O          16.3785   69.9528   -6.8663 O.2     1  UNL1       -0.2670
     17 N          18.9640   72.7557   -8.2738 N.ar    1  UNL1       -0.2551
     18 N          17.7456   70.7353   -8.5610 N.ar    1  UNL1       -0.2743
     19 C          18.6419   71.6616   -9.1104 C.ar    1  UNL1        0.3323
     20 C          18.4022   72.8538   -7.0056 C.ar    1  UNL1        0.0869
     21 C          17.5496   71.9621   -6.4960 C.ar    1  UNL1        0.0795
     22 C          17.1605   70.7903   -7.3054 C.ar    1  UNL1        0.2626
     23 H          17.4992   69.9407   -9.1450 H       1  UNL1        0.1734
     24 O          22.7306   75.0297   -3.3397 O.3     1  UNL1       -0.2703
     25 P          23.8189   73.9474   -2.8329 P.3     1  UNL1        0.2208
     26 O          25.2208   74.7444   -2.9580 O.3     1  UNL1       -0.4371
     27 O          23.7800   72.6414   -3.5737 O.2     1  UNL1       -0.5170
     28 O          23.5612   73.8211   -1.2450 O.3     1  UNL1       -0.2858
     29 O          21.7769   72.3281   -0.8127 O.3     1  UNL1       -0.3226
     30 O          22.6793   73.7324    2.9943 O.3     1  UNL1       -0.3794
     31 O          22.6592   75.5476    0.7116 O.3     1  UNL1       -0.3775
     32 O          21.0666   71.7685    1.9114 O.3     1  UNL1       -0.3792
     33 C          22.9008   73.3184    1.6490 C.3     1  UNL1        0.1718
     34 C          22.1356   74.2242    0.6782 C.3     1  UNL1        0.1968
     35 C          22.4318   71.8691    1.4933 C.3     1  UNL1        0.1723
     36 C          22.2279   73.6853   -0.7548 C.3     1  UNL1        0.2706
     37 C          22.5286   71.4531    0.0271 C.3     1  UNL1        0.1830
     38 H          23.1793   73.1311    3.5723 H       1  UNL1        0.2105
     39 H          22.1515   76.0801    0.0764 H       1  UNL1        0.2106
     40 H          20.5042   72.1742    1.2300 H       1  UNL1        0.2106
     41 O          21.7164   69.8771   -1.5093 O.co2   1  UNL1       -0.5466
     42 O          21.7426   69.2677    0.6873 O.co2   1  UNL1       -0.5466
     43 C          21.9591   70.0878   -0.1931 C.2     1  UNL1        0.0799
@<TRIPOS>UNITY_ATOM_ATTR
41 1
charge -1
@<TRIPOS>BOND
     1     1     4    1
     2     1    24    1
     3     1     2    1
     4     1     3    2
     5    25    28    1
     6    25    24    1
     7    25    26    1
     8    25    27    2
     9     6    11    1
    10     6    12    1
    11    29    36    1
    12    29    37    1
    13     7     9    1
    14     7    13    1
    15     8    10    1
    16     8    14    1
    17     4     5    1
    18    28    36    1
    19    30    33    1
    20    30    38    1
    21    31    34    1
    22    31    39    1
    23    32    35    1
    24    32    40    1
    25    41    43   ar
    26    15    19    2
    27    42    43   ar
    28    16    22    2
    29    17    12    1
    30    17    19   ar
    31    17    20   ar
    32    18    19   ar
    33    18    22   ar
    34    18    23    1
    35     9    10    1
    36     9    11    1
    37    10    12    1
    38    11     5    1
    39    33    34    1
    40    33    35    1
    41    34    36    1
    42    35    37    1
    43    37    43    1
    44    20    21   ar
    45    21    22   ar
@<TRIPOS>MOLECULE
UDP-glaA
 43 45 0 0 0
SMALL
GASTEIGER

@<TRIPOS>ATOM
      1 P          22.6385   71.6199   -2.4701 P.3     1  UNL1        0.2189
      2 O          22.9456   73.1733   -2.8018 O.3     1  UNL1       -0.4371
      3 O          23.5130   70.6344   -3.1884 O.2     1  UNL1       -0.5170
      4 O          21.0496   71.4720   -2.7331 O.3     1  UNL1       -0.3112
      5 C          20.4380   72.3264   -3.6845 C.3     1  UNL1        0.1811
      6 O          18.3226   72.4402   -4.8186 O.3     1  UNL1       -0.3308
      7 O          17.1690   71.0788   -2.4087 O.3     1  UNL1       -0.3794
      8 O          17.4016   69.0316   -4.1949 O.3     1  UNL1       -0.3779
      9 C          18.4418   70.8936   -3.0280 C.3     1  UNL1        0.1713
     10 C          18.2888   70.1234   -4.3226 C.3     1  UNL1        0.1895
     11 C          18.9268   72.2509   -3.5200 C.3     1  UNL1        0.1764
     12 C          17.7664   71.1931   -5.2665 C.3     1  UNL1        0.2383
     13 H          17.3117   71.6090   -1.6061 H       1  UNL1        0.2105
     14 H          17.7509   68.4506   -3.4973 H       1  UNL1        0.2106
     15 O          15.9935   70.5006   -7.3529 O.2     1  UNL1       -0.2464
     16 O          19.4057   70.3432  -10.4465 O.2     1  UNL1       -0.2670
     17 N          18.1641   70.9658   -6.6265 N.ar    1  UNL1       -0.2551
     18 N          17.6939   70.4222   -8.8919 N.ar    1  UNL1       -0.2743
     19 C          17.1952   70.6218   -7.5979 C.ar    1  UNL1        0.3323
     20 C          19.5019   71.0842   -6.9864 C.ar    1  UNL1        0.0869
     21 C          19.9616   70.8912   -8.2247 C.ar    1  UNL1        0.0795
     22 C          19.0151   70.5281   -9.2980 C.ar    1  UNL1        0.2626
     23 H          17.0153   70.1734   -9.6066 H       1  UNL1        0.1734
     24 O          22.7462   71.5656   -0.8574 O.3     1  UNL1       -0.2703
     25 P          22.0536   70.5784    0.2188 P.3     1  UNL1        0.2208
     26 O          23.3169   69.9086    0.9747 O.3     1  UNL1       -0.4371
     27 O          21.0942   69.5902   -0.3801 O.2     1  UNL1       -0.5170
     28 O          21.3974   71.5643    1.3150 O.3     1  UNL1       -0.2858
     29 O          21.9095   73.8723    1.2142 O.3     1  UNL1       -0.3226
     30 O          20.3223   73.4984    5.0378 O.3     1  UNL1       -0.3794
     31 O          22.1247   71.4660    3.9766 O.3     1  UNL1       -0.3775
     32 O          21.0930   75.5693    3.3803 O.3     1  UNL1       -0.3792
     33 C          20.4998   73.2430    3.6473 C.3     1  UNL1        0.1718
     34 C          21.9210   72.7395    3.3736 C.3     1  UNL1        0.1968
     35 C          20.2435   74.5367    2.8695 C.3     1  UNL1        0.1723
     36 C          22.1760   72.6258    1.8655 C.3     1  UNL1        0.2706
     37 C          20.5667   74.3203    1.3927 C.3     1  UNL1        0.1830
     38 H          19.4121   73.8166    5.1638 H       1  UNL1        0.2105
     39 H          23.0317   71.1847    3.7689 H       1  UNL1        0.2106
     40 H          22.0014   75.3994    3.0786 H       1  UNL1        0.2106
     41 O          19.2524   75.6717   -0.0038 O.co2   1  UNL1       -0.5466
     42 O          21.3227   76.4516    0.5467 O.co2   1  UNL1       -0.5466
     43 C          20.4548   75.5934    0.6157 C.2     1  UNL1        0.0799
@<TRIPOS>UNITY_ATOM_ATTR
41 1
charge -1
@<TRIPOS>BOND
     1     1     4    1
     2     1    24    1
     3     1     2    1
     4     1     3    2
     5    25    28    1
     6    25    24    1
     7    25    26    1
     8    25    27    2
     9     6    11    1
    10     6    12    1
    11    29    36    1
    12    29    37    1
    13     7     9    1
    14     7    13    1
    15     8    10    1
    16     8    14    1
    17     4     5    1
    18    28    36    1
    19    30    33    1
    20    30    38    1
    21    31    34    1
    22    31    39    1
    23    32    35    1
    24    32    40    1
    25    41    43   ar
    26    15    19    2
    27    42    43   ar
    28    16    22    2
    29    17    12    1
    30    17    19   ar
    31    17    20   ar
    32    18    19   ar
    33    18    22   ar
    34    18    23    1
    35     9    10    1
    36     9    11    1
    37    10    12    1
    38    11     5    1
    39    33    34    1
    40    33    35    1
    41    34    36    1
    42    35    37    1
    43    37    43    1
    44    20    21   ar
    45    21    22   ar
@<TRIPOS>MOLECULE
UDP-glaA
 43 45 0 0 0
SMALL
GASTEIGER

@<TRIPOS>ATOM
      1 P          21.6187   70.3698   -1.0563 P.3     1  UNL1        0.2189
      2 O          23.0937   70.8545   -1.5110 O.3     1  UNL1       -0.4371
      3 O          21.5712   69.6206    0.2432 O.2     1  UNL1       -0.5170
      4 O          21.0545   69.5750   -2.3469 O.3     1  UNL1       -0.3112
      5 C          20.7341   70.3160   -3.5120 C.3     1  UNL1        0.1811
      6 O          19.0351   71.6639   -4.5468 O.3     1  UNL1       -0.3308
      7 O          17.1871   70.6338   -2.4219 O.3     1  UNL1       -0.3794
      8 O          16.5235   69.1053   -4.5804 O.3     1  UNL1       -0.3779
      9 C          18.2497   69.9619   -3.0981 C.3     1  UNL1        0.1713
     10 C          17.8375   69.6195   -4.5143 C.3     1  UNL1        0.1895
     11 C          19.3709   70.9670   -3.3266 C.3     1  UNL1        0.1764
     12 C          17.9761   70.9597   -5.2162 C.3     1  UNL1        0.2383
     13 H          17.5099   70.8672   -1.5348 H       1  UNL1        0.2105
     14 H          16.4914   68.3112   -4.0196 H       1  UNL1        0.2106
     15 O          16.1019   70.4693   -7.2709 O.2     1  UNL1       -0.2464
     16 O          19.3832   70.4374  -10.5067 O.2     1  UNL1       -0.2670
     17 N          18.3128   70.8194   -6.6041 N.ar    1  UNL1       -0.2551
     18 N          17.7372   70.4532   -8.8808 N.ar    1  UNL1       -0.2743
     19 C          17.2962   70.5736   -7.5563 C.ar    1  UNL1        0.3323
     20 C          19.6385   70.9254   -7.0099 C.ar    1  UNL1        0.0869
     21 C          20.0429   70.8087   -8.2767 C.ar    1  UNL1        0.0795
     22 C          19.0441   70.5505   -9.3328 C.ar    1  UNL1        0.2626
     23 H          17.0236   70.2757   -9.5825 H       1  UNL1        0.1734
     24 O          20.7646   71.7429   -1.0736 O.3     1  UNL1       -0.2703
     25 P          21.1485   73.2364   -0.5892 P.3     1  UNL1        0.2208
     26 O          19.7776   74.0641   -0.8164 O.3     1  UNL1       -0.4371
     27 O          22.3469   73.8196   -1.2816 O.2     1  UNL1       -0.5170
     28 O          21.2952   73.1214    1.0137 O.3     1  UNL1       -0.2858
     29 O          22.5798   74.8787    1.9417 O.3     1  UNL1       -0.3226
     30 O          22.0371   72.3741    5.2146 O.3     1  UNL1       -0.3794
     31 O          22.6089   71.2647    2.5787 O.3     1  UNL1       -0.3775
     32 O          23.0532   74.9043    4.7726 O.3     1  UNL1       -0.3792
     33 C          21.7335   73.0382    3.9911 C.3     1  UNL1        0.1718
     34 C          22.7403   72.6442    2.9051 C.3     1  UNL1        0.1968
     35 C          21.7793   74.5508    4.2240 C.3     1  UNL1        0.1723
     36 C          22.5272   73.4809    1.6374 C.3     1  UNL1        0.2706
     37 C          21.5971   75.2805    2.8949 C.3     1  UNL1        0.1830
     38 H          21.3776   72.6544    5.8720 H       1  UNL1        0.2105
     39 H          23.2576   71.0647    1.8830 H       1  UNL1        0.2106
     40 H          23.7196   74.8487    4.0669 H       1  UNL1        0.2106
     41 O          22.9329   77.1695    2.5063 O.co2   1  UNL1       -0.5466
     42 O          20.9602   77.5001    3.6000 O.co2   1  UNL1       -0.5466
     43 C          21.7641   76.7582    3.0544 C.2     1  UNL1        0.0799
@<TRIPOS>UNITY_ATOM_ATTR
41 1
charge -1
@<TRIPOS>BOND
     1     1     4    1
     2     1    24    1
     3     1     2    1
     4     1     3    2
     5    25    28    1
     6    25    24    1
     7    25    26    1
     8    25    27    2
     9     6    11    1
    10     6    12    1
    11    29    36    1
    12    29    37    1
    13     7     9    1
    14     7    13    1
    15     8    10    1
    16     8    14    1
    17     4     5    1
    18    28    36    1
    19    30    33    1
    20    30    38    1
    21    31    34    1
    22    31    39    1
    23    32    35    1
    24    32    40    1
    25    41    43   ar
    26    15    19    2
    27    42    43   ar
    28    16    22    2
    29    17    12    1
    30    17    19   ar
    31    17    20   ar
    32    18    19   ar
    33    18    22   ar
    34    18    23    1
    35     9    10    1
    36     9    11    1
    37    10    12    1
    38    11     5    1
    39    33    34    1
    40    33    35    1
    41    34    36    1
    42    35    37    1
    43    37    43    1
    44    20    21   ar
    45    21    22   ar
@<TRIPOS>MOLECULE
UDP-glaA
 43 45 0 0 0
SMALL
GASTEIGER

@<TRIPOS>ATOM
      1 P          22.8110   73.1006   -4.0637 P.3     1  UNL1        0.2189
      2 O          22.5224   72.6115   -5.5786 O.3     1  UNL1       -0.4371
      3 O          24.2593   73.3114   -3.7317 O.2     1  UNL1       -0.5170
      4 O          22.0306   72.0186   -3.1495 O.3     1  UNL1       -0.3112
      5 C          21.1521   71.1043   -3.7831 C.3     1  UNL1        0.1811
      6 O          19.1567   72.0505   -4.7305 O.3     1  UNL1       -0.3308
      7 O          17.7126   70.8950   -2.3703 O.3     1  UNL1       -0.3794
      8 O          17.1502   69.1038   -4.3480 O.3     1  UNL1       -0.3779
      9 C          18.8161   70.3629   -3.1030 C.3     1  UNL1        0.1713
     10 C          18.3517   69.8402   -4.4460 C.3     1  UNL1        0.1895
     11 C          19.7154   71.5240   -3.5066 C.3     1  UNL1        0.1764
     12 C          18.1874   71.1223   -5.2443 C.3     1  UNL1        0.2383
     13 H          18.0634   71.2522   -1.5367 H       1  UNL1        0.2105
     14 H          17.3091   68.3645   -3.7360 H       1  UNL1        0.2106
     15 O          16.2116   70.3300   -7.1001 O.2     1  UNL1       -0.2464
     16 O          19.2076   70.4097  -10.6009 O.2     1  UNL1       -0.2670
     17 N          18.4231   70.9290   -6.6465 N.ar    1  UNL1       -0.2551
     18 N          17.7049   70.3697   -8.8420 N.ar    1  UNL1       -0.2743
     19 C          17.3625   70.5293   -7.4928 C.ar    1  UNL1        0.3323
     20 C          19.6945   71.1350   -7.1705 C.ar    1  UNL1        0.0869
     21 C          20.0049   70.9790   -8.4594 C.ar    1  UNL1        0.0795
     22 C          18.9548   70.5624   -9.4098 C.ar    1  UNL1        0.2626
     23 H          16.9583   70.0822   -9.4689 H       1  UNL1        0.1734
     24 O          21.8896   74.4227   -3.9280 O.3     1  UNL1       -0.2703
     25 P          22.1296   75.9388   -4.4342 P.3     1  UNL1        0.2208
     26 O          23.6083   76.2859   -3.8784 O.3     1  UNL1       -0.4371
     27 O          21.0636   76.9068   -4.0070 O.2     1  UNL1       -0.5170
     28 O          22.3133   75.8120   -6.0324 O.3     1  UNL1       -0.2858
     29 O          24.0165   76.2788   -7.6074 O.3     1  UNL1       -0.3226
     30 O          20.6300   77.7330   -9.5300 O.3     1  UNL1       -0.3794
     31 O          21.0083   78.1601   -6.6698 O.3     1  UNL1       -0.3775
     32 O          23.2778   77.2996  -10.1864 O.3     1  UNL1       -0.3792
     33 C          21.4199   76.8872   -8.6988 C.3     1  UNL1        0.1718
     34 C          22.0287   77.6900   -7.5442 C.3     1  UNL1        0.1968
     35 C          22.5318   76.2603   -9.5445 C.3     1  UNL1        0.1723
     36 C          23.0154   76.8295   -6.7452 C.3     1  UNL1        0.2706
     37 C          23.4736   75.4632   -8.6446 C.3     1  UNL1        0.1830
     38 H          20.2676   77.1846  -10.2466 H       1  UNL1        0.2105
     39 H          21.4408   78.6526   -5.9521 H       1  UNL1        0.2106
     40 H          23.8349   77.7366   -9.5201 H       1  UNL1        0.2106
     41 O          24.2455   74.3511  -10.5606 O.co2   1  UNL1       -0.5466
     42 O          25.8137   75.0298   -9.0516 O.co2   1  UNL1       -0.5466
     43 C          24.6480   74.9399   -9.4086 C.2     1  UNL1        0.0799
@<TRIPOS>UNITY_ATOM_ATTR
41 1
charge -1
@<TRIPOS>BOND
     1     1     4    1
     2     1    24    1
     3     1     2    1
     4     1     3    2
     5    25    28    1
     6    25    24    1
     7    25    26    1
     8    25    27    2
     9     6    11    1
    10     6    12    1
    11    29    36    1
    12    29    37    1
    13     7     9    1
    14     7    13    1
    15     8    10    1
    16     8    14    1
    17     4     5    1
    18    28    36    1
    19    30    33    1
    20    30    38    1
    21    31    34    1
    22    31    39    1
    23    32    35    1
    24    32    40    1
    25    41    43   ar
    26    15    19    2
    27    42    43   ar
    28    16    22    2
    29    17    12    1
    30    17    19   ar
    31    17    20   ar
    32    18    19   ar
    33    18    22   ar
    34    18    23    1
    35     9    10    1
    36     9    11    1
    37    10    12    1
    38    11     5    1
    39    33    34    1
    40    33    35    1
    41    34    36    1
    42    35    37    1
    43    37    43    1
    44    20    21   ar
    45    21    22   ar
@<TRIPOS>MOLECULE
UDP-glaA
 43 45 0 0 0
SMALL
GASTEIGER

@<TRIPOS>ATOM
      1 P          22.4390   73.1174   -4.0914 P.3     1  UNL1        0.2189
      2 O          23.6721   72.1672   -3.6510 O.3     1  UNL1       -0.4371
      3 O          22.0275   74.1353   -3.0683 O.2     1  UNL1       -0.5170
      4 O          21.2891   72.0765   -4.5493 O.3     1  UNL1       -0.3112
      5 C          20.6839   71.2585   -3.5625 C.3     1  UNL1        0.1811
      6 O          18.7630   72.1499   -4.6981 O.3     1  UNL1       -0.3308
      7 O          17.1367   70.9964   -2.4584 O.3     1  UNL1       -0.3794
      8 O          16.7884   69.1673   -4.4506 O.3     1  UNL1       -0.3779
      9 C          18.3115   70.4777   -3.0817 C.3     1  UNL1        0.1713
     10 C          17.9792   69.9273   -4.4526 C.3     1  UNL1        0.1895
     11 C          19.2203   71.6517   -3.4214 C.3     1  UNL1        0.1764
     12 C          17.8617   71.1947   -5.2818 C.3     1  UNL1        0.2383
     13 H          17.4046   71.3722   -1.6025 H       1  UNL1        0.2105
     14 H          16.9064   68.4399   -3.8157 H       1  UNL1        0.2106
     15 O          16.0648   70.3832   -7.3037 O.2     1  UNL1       -0.2464
     16 O          19.3706   70.4288  -10.5144 O.2     1  UNL1       -0.2670
     17 N          18.2255   70.9875   -6.6544 N.ar    1  UNL1       -0.2551
     18 N          17.7123   70.4059   -8.9010 N.ar    1  UNL1       -0.2743
     19 C          17.2472   70.5790   -7.5907 C.ar    1  UNL1        0.3323
     20 C          19.5399   71.1887   -7.0611 C.ar    1  UNL1        0.0869
     21 C          19.9676   71.0200   -8.3143 C.ar    1  UNL1        0.0795
     22 C          19.0093   70.5934   -9.3532 C.ar    1  UNL1        0.2626
     23 H          17.0264   70.1119   -9.5911 H       1  UNL1        0.1734
     24 O          22.9450   73.7402   -5.4954 O.3     1  UNL1       -0.2703
     25 P          22.2398   74.7846   -6.5075 P.3     1  UNL1        0.2208
     26 O          22.4419   76.2099   -5.7701 O.3     1  UNL1       -0.4371
     27 O          20.8123   74.4542   -6.8376 O.2     1  UNL1       -0.5170
     28 O          23.2232   74.8430   -7.7856 O.3     1  UNL1       -0.2858
     29 O          22.1049   76.3272   -9.2505 O.3     1  UNL1       -0.3226
     30 O          25.7182   75.7225  -11.2146 O.3     1  UNL1       -0.3794
     31 O          24.3451   73.4987   -9.9203 O.3     1  UNL1       -0.3775
     32 O          23.5283   77.3799  -11.5099 O.3     1  UNL1       -0.3792
     33 C          24.8132   75.8748  -10.1247 C.3     1  UNL1        0.1718
     34 C          23.7506   74.7710  -10.1541 C.3     1  UNL1        0.1968
     35 C          24.1444   77.2486  -10.2245 C.3     1  UNL1        0.1723
     36 C          22.6749   75.0240   -9.0905 C.3     1  UNL1        0.2706
     37 C          23.0681   77.3748   -9.1485 C.3     1  UNL1        0.1830
     38 H          26.3699   76.4420  -11.1575 H       1  UNL1        0.2105
     39 H          23.6350   72.8352   -9.9387 H       1  UNL1        0.2106
     40 H          22.7268   76.8299  -11.5259 H       1  UNL1        0.2106
     41 O          22.8568   79.6302   -8.5382 O.co2   1  UNL1       -0.5466
     42 O          21.3073   78.7975   -9.9882 O.co2   1  UNL1       -0.5466
     43 C          22.2999   78.6503   -9.2900 C.2     1  UNL1        0.0799
@<TRIPOS>UNITY_ATOM_ATTR
41 1
charge -1
@<TRIPOS>BOND
     1     1     4    1
     2     1    24    1
     3     1     2    1
     4     1     3    2
     5    25    28    1
     6    25    24    1
     7    25    26    1
     8    25    27    2
     9     6    11    1
    10     6    12    1
    11    29    36    1
    12    29    37    1
    13     7     9    1
    14     7    13    1
    15     8    10    1
    16     8    14    1
    17     4     5    1
    18    28    36    1
    19    30    33    1
    20    30    38    1
    21    31    34    1
    22    31    39    1
    23    32    35    1
    24    32    40    1
    25    41    43   ar
    26    15    19    2
    27    42    43   ar
    28    16    22    2
    29    17    12    1
    30    17    19   ar
    31    17    20   ar
    32    18    19   ar
    33    18    22   ar
    34    18    23    1
    35     9    10    1
    36     9    11    1
    37    10    12    1
    38    11     5    1
    39    33    34    1
    40    33    35    1
    41    34    36    1
    42    35    37    1
    43    37    43    1
    44    20    21   ar
    45    21    22   ar
@<TRIPOS>MOLECULE
UDP-glaA
 43 45 0 0 0
SMALL
GASTEIGER

@<TRIPOS>ATOM
      1 P          23.3145   72.9327   -3.7491 P.3     1  UNL1        0.2189
      2 O          22.3111   73.8122   -2.8341 O.3     1  UNL1       -0.4371
      3 O          23.5317   71.5249   -3.2768 O.2     1  UNL1       -0.5170
      4 O          24.6424   73.8489   -3.8627 O.3     1  UNL1       -0.3112
      5 C          24.5191   75.2475   -3.6680 C.3     1  UNL1        0.1811
      6 O          26.7005   74.9670   -2.7000 O.3     1  UNL1       -0.3308
      7 O          26.1938   77.5540   -1.2709 O.3     1  UNL1       -0.3794
      8 O          27.8041   78.3190   -3.3343 O.3     1  UNL1       -0.3779
      9 C          25.8042   77.1570   -2.5855 C.3     1  UNL1        0.1713
     10 C          26.9996   77.1719   -3.5146 C.3     1  UNL1        0.1895
     11 C          25.4515   75.6759   -2.5438 C.3     1  UNL1        0.1764
     12 C          27.7162   75.8894   -3.1278 C.3     1  UNL1        0.2383
     13 H          25.4063   77.4917   -0.7040 H       1  UNL1        0.2105
     14 H          27.2438   79.0977   -3.4948 H       1  UNL1        0.2106
     15 O          29.9748   74.2172   -2.8486 O.2     1  UNL1       -0.2464
     16 O          30.4095   73.7349   -7.4112 O.2     1  UNL1       -0.2670
     17 N          28.4386   75.3125   -4.2254 N.ar    1  UNL1       -0.2551
     18 N          30.1901   73.9786   -5.1208 N.ar    1  UNL1       -0.2743
     19 C          29.5602   74.4872   -3.9772 C.ar    1  UNL1        0.3323
     20 C          28.0342   75.5667   -5.5313 C.ar    1  UNL1        0.0869
     21 C          28.6451   75.0738   -6.6111 C.ar    1  UNL1        0.0795
     22 C          29.8251   74.2035   -6.4391 C.ar    1  UNL1        0.2626
     23 H          30.9992   73.3831   -4.9664 H       1  UNL1        0.1734
     24 O          22.6615   73.0553   -5.2235 O.3     1  UNL1       -0.2703
     25 P          21.1209   72.9972   -5.7090 P.3     1  UNL1        0.2208
     26 O          21.2171   72.3026   -7.1665 O.3     1  UNL1       -0.4371
     27 O          20.4219   74.3266   -5.7006 O.2     1  UNL1       -0.5170
     28 O          20.4374   71.8788   -4.7678 O.3     1  UNL1       -0.2858
     29 O          18.1537   71.7979   -5.3822 O.3     1  UNL1       -0.3226
     30 O          18.3743   68.8502   -2.4596 O.3     1  UNL1       -0.3794
     31 O          19.7993   71.3734   -2.1296 O.3     1  UNL1       -0.3775
     32 O          16.4947   69.7298   -4.2827 O.3     1  UNL1       -0.3792
     33 C          18.7941   69.6724   -3.5449 C.3     1  UNL1        0.1718
     34 C          18.8071   71.1462   -3.1250 C.3     1  UNL1        0.1968
     35 C          17.8330   69.4709   -4.7196 C.3     1  UNL1        0.1723
     36 C          19.0904   72.0518   -4.3300 C.3     1  UNL1        0.2706
     37 C          18.1813   70.4472   -5.8410 C.3     1  UNL1        0.1830
     38 H          18.3787   67.9289   -2.7707 H       1  UNL1        0.2105
     39 H          19.7766   72.3184   -1.9031 H       1  UNL1        0.2106
     40 H          16.3859   70.6896   -4.1728 H       1  UNL1        0.2106
     41 O          17.8184   70.2918   -8.1536 O.co2   1  UNL1       -0.5466
     42 O          15.9738   70.3867   -6.8174 O.co2   1  UNL1       -0.5466
     43 C          17.1882   70.3754   -6.9572 C.2     1  UNL1        0.0799
@<TRIPOS>UNITY_ATOM_ATTR
41 1
charge -1
@<TRIPOS>BOND
     1     1     4    1
     2     1    24    1
     3     1     2    1
     4     1     3    2
     5    25    28    1
     6    25    24    1
     7    25    26    1
     8    25    27    2
     9     6    11    1
    10     6    12    1
    11    29    36    1
    12    29    37    1
    13     7     9    1
    14     7    13    1
    15     8    10    1
    16     8    14    1
    17     4     5    1
    18    28    36    1
    19    30    33    1
    20    30    38    1
    21    31    34    1
    22    31    39    1
    23    32    35    1
    24    32    40    1
    25    41    43   ar
    26    15    19    2
    27    42    43   ar
    28    16    22    2
    29    17    12    1
    30    17    19   ar
    31    17    20   ar
    32    18    19   ar
    33    18    22   ar
    34    18    23    1
    35     9    10    1
    36     9    11    1
    37    10    12    1
    38    11     5    1
    39    33    34    1
    40    33    35    1
    41    34    36    1
    42    35    37    1
    43    37    43    1
    44    20    21   ar
    45    21    22   ar
@<TRIPOS>MOLECULE
UDP-glaA
 43 45 0 0 0
SMALL
GASTEIGER

@<TRIPOS>ATOM
      1 P          23.1148   73.9005   -3.5945 P.3     1  UNL1        0.2189
      2 O          22.8953   75.2283   -2.6967 O.3     1  UNL1       -0.4371
      3 O          24.5447   73.4742   -3.7551 O.2     1  UNL1       -0.5170
      4 O          22.3188   74.2209   -4.9653 O.3     1  UNL1       -0.3112
      5 C          21.7112   73.1469   -5.6629 C.3     1  UNL1        0.1811
      6 O          21.1391   72.6560   -7.9445 O.3     1  UNL1       -0.3308
      7 O          23.4607   74.3949   -8.7046 O.3     1  UNL1       -0.3794
      8 O          21.3265   76.0468   -9.0950 O.3     1  UNL1       -0.3779
      9 C          22.5400   74.5393   -7.6233 C.3     1  UNL1        0.1713
     10 C          21.1980   75.0170   -8.1365 C.3     1  UNL1        0.1895
     11 C          22.2051   73.1478   -7.1026 C.3     1  UNL1        0.1764
     12 C          20.6125   73.7435   -8.7226 C.3     1  UNL1        0.2383
     13 H          24.2912   74.0507   -8.3341 H       1  UNL1        0.2105
     14 H          21.8060   76.7807   -8.6735 H       1  UNL1        0.2106
     15 O          18.9681   72.1028  -10.3286 O.2     1  UNL1       -0.2464
     16 O          15.1244   73.7255   -8.3710 O.2     1  UNL1       -0.2670
     17 N          19.1794   73.7165   -8.6533 N.ar    1  UNL1       -0.2551
     18 N          17.0552   72.9123   -9.3531 N.ar    1  UNL1       -0.2743
     19 C          18.4469   72.8569   -9.5049 C.ar    1  UNL1        0.3323
     20 C          18.5136   74.5362   -7.7487 C.ar    1  UNL1        0.0869
     21 C          17.1860   74.5772   -7.6156 C.ar    1  UNL1        0.0795
     22 C          16.3477   73.7111   -8.4681 C.ar    1  UNL1        0.2626
     23 H          16.5082   72.3032   -9.9555 H       1  UNL1        0.1734
     24 O          22.1647   72.8114   -2.8690 O.3     1  UNL1       -0.2703
     25 P          22.3174   71.2102   -2.7094 P.3     1  UNL1        0.2208
     26 O          22.2550   70.9893   -1.1083 O.3     1  UNL1       -0.4371
     27 O          23.5413   70.6395   -3.3668 O.2     1  UNL1       -0.5170
     28 O          20.9241   70.6097   -3.2592 O.3     1  UNL1       -0.2858
     29 O          19.1530   71.5844   -2.0293 O.3     1  UNL1       -0.3226
     30 O          17.1257   68.9983   -4.5752 O.3     1  UNL1       -0.3794
     31 O          19.6206   68.1764   -3.3079 O.3     1  UNL1       -0.3775
     32 O          16.4487   70.9915   -2.7868 O.3     1  UNL1       -0.3792
     33 C          18.1317   69.9082   -4.1390 C.3     1  UNL1        0.1718
     34 C          18.8838   69.3355   -2.9329 C.3     1  UNL1        0.1968
     35 C          17.4687   71.2355   -3.7609 C.3     1  UNL1        0.1723
     36 C          19.8490   70.3755   -2.3507 C.3     1  UNL1        0.2706
     37 C          18.5098   72.1757   -3.1573 C.3     1  UNL1        0.1830
     38 H          16.6751   69.4021   -5.3365 H       1  UNL1        0.2105
     39 H          20.0859   67.8560   -2.5169 H       1  UNL1        0.2106
     40 H          16.8751   70.7976   -1.9349 H       1  UNL1        0.2106
     41 O          17.6369   73.3514   -1.3244 O.co2   1  UNL1       -0.5466
     42 O          17.6256   74.4149   -3.3408 O.co2   1  UNL1       -0.5466
     43 C          17.8822   73.4366   -2.6541 C.2     1  UNL1        0.0799
@<TRIPOS>UNITY_ATOM_ATTR
41 1
charge -1
@<TRIPOS>BOND
     1     1     4    1
     2     1    24    1
     3     1     2    1
     4     1     3    2
     5    25    28    1
     6    25    24    1
     7    25    26    1
     8    25    27    2
     9     6    11    1
    10     6    12    1
    11    29    36    1
    12    29    37    1
    13     7     9    1
    14     7    13    1
    15     8    10    1
    16     8    14    1
    17     4     5    1
    18    28    36    1
    19    30    33    1
    20    30    38    1
    21    31    34    1
    22    31    39    1
    23    32    35    1
    24    32    40    1
    25    41    43   ar
    26    15    19    2
    27    42    43   ar
    28    16    22    2
    29    17    12    1
    30    17    19   ar
    31    17    20   ar
    32    18    19   ar
    33    18    22   ar
    34    18    23    1
    35     9    10    1
    36     9    11    1
    37    10    12    1
    38    11     5    1
    39    33    34    1
    40    33    35    1
    41    34    36    1
    42    35    37    1
    43    37    43    1
    44    20    21   ar
    45    21    22   ar
@<TRIPOS>MOLECULE
UDP-glaA
 43 45 0 0 0
SMALL
GASTEIGER

@<TRIPOS>ATOM
      1 P          22.1654   74.9426   -7.8679 P.3     1  UNL1        0.2189
      2 O          21.5152   76.0844   -8.8118 O.3     1  UNL1       -0.4371
      3 O          23.5792   75.2056   -7.4387 O.2     1  UNL1       -0.5170
      4 O          21.9244   73.5720   -8.6918 O.3     1  UNL1       -0.3112
      5 C          21.3832   72.4557   -8.0062 C.3     1  UNL1        0.1811
      6 O          19.8992   70.5787   -8.2272 O.3     1  UNL1       -0.3308
      7 O          18.5515   72.1390  -10.4044 O.3     1  UNL1       -0.3794
      8 O          16.8824   72.5156   -8.2812 O.3     1  UNL1       -0.3779
      9 C          19.1362   72.6051   -9.1884 C.3     1  UNL1        0.1713
     10 C          18.2460   72.2625   -8.0125 C.3     1  UNL1        0.1895
     11 C          20.3729   71.7614   -8.9083 C.3     1  UNL1        0.1764
     12 C          18.5378   70.7847   -7.8155 C.3     1  UNL1        0.2383
     13 H          19.1735   72.3454  -11.1228 H       1  UNL1        0.2105
     14 H          16.7980   73.4589   -8.5033 H       1  UNL1        0.2106
     15 O          16.1353   69.8360   -6.6738 O.2     1  UNL1       -0.2464
     16 O          18.1127   69.2453   -2.5532 O.2     1  UNL1       -0.2670
     17 N          18.3965   70.3756   -6.4473 N.ar    1  UNL1       -0.2551
     18 N          17.1215   69.5430   -4.6225 N.ar    1  UNL1       -0.2743
     19 C          17.1459   69.9154   -5.9730 C.ar    1  UNL1        0.3323
     20 C          19.4900   70.4328   -5.5903 C.ar    1  UNL1        0.0869
     21 C          19.4507   70.0737   -4.3052 C.ar    1  UNL1        0.0795
     22 C          18.1823   69.5826   -3.7310 C.ar    1  UNL1        0.2626
     23 H          16.2325   69.2095   -4.2596 H       1  UNL1        0.1734
     24 O          21.1033   74.8280   -6.6538 O.3     1  UNL1       -0.2703
     25 P          20.9788   75.6576   -5.2722 P.3     1  UNL1        0.2208
     26 O          19.4042   76.0197   -5.1974 O.3     1  UNL1       -0.4371
     27 O          21.8931   76.8458   -5.1826 O.2     1  UNL1       -0.5170
     28 O          21.2003   74.5571   -4.1130 O.3     1  UNL1       -0.2858
     29 O          22.2197   74.6874   -1.9815 O.3     1  UNL1       -0.3226
     30 O          23.2469   70.8498   -3.2050 O.3     1  UNL1       -0.3794
     31 O          23.3138   73.0737   -5.0906 O.3     1  UNL1       -0.3775
     32 O          23.4440   72.3346   -0.8841 O.3     1  UNL1       -0.3792
     33 C          22.4597   72.0297   -3.0689 C.3     1  UNL1        0.1718
     34 C          23.1875   73.2312   -3.6813 C.3     1  UNL1        0.1968
     35 C          22.1953   72.2798   -1.5817 C.3     1  UNL1        0.1723
     36 C          22.4296   74.5322   -3.3889 C.3     1  UNL1        0.2706
     37 C          21.4752   73.6150   -1.4059 C.3     1  UNL1        0.1830
     38 H          22.7496   70.1174   -2.8026 H       1  UNL1        0.2105
     39 H          23.7706   73.8601   -5.4339 H       1  UNL1        0.2106
     40 H          23.8789   73.1781   -1.0952 H       1  UNL1        0.2106
     41 O          20.1023   73.5545    0.4955 O.co2   1  UNL1       -0.5466
     42 O          22.1491   74.5321    0.7235 O.co2   1  UNL1       -0.5466
     43 C          21.3113   73.9622    0.0397 C.2     1  UNL1        0.0799
@<TRIPOS>UNITY_ATOM_ATTR
41 1
charge -1
@<TRIPOS>BOND
     1     1     4    1
     2     1    24    1
     3     1     2    1
     4     1     3    2
     5    25    28    1
     6    25    24    1
     7    25    26    1
     8    25    27    2
     9     6    11    1
    10     6    12    1
    11    29    36    1
    12    29    37    1
    13     7     9    1
    14     7    13    1
    15     8    10    1
    16     8    14    1
    17     4     5    1
    18    28    36    1
    19    30    33    1
    20    30    38    1
    21    31    34    1
    22    31    39    1
    23    32    35    1
    24    32    40    1
    25    41    43   ar
    26    15    19    2
    27    42    43   ar
    28    16    22    2
    29    17    12    1
    30    17    19   ar
    31    17    20   ar
    32    18    19   ar
    33    18    22   ar
    34    18    23    1
    35     9    10    1
    36     9    11    1
    37    10    12    1
    38    11     5    1
    39    33    34    1
    40    33    35    1
    41    34    36    1
    42    35    37    1
    43    37    43    1
    44    20    21   ar
    45    21    22   ar
@<TRIPOS>MOLECULE
UDP-glaA
 43 45 0 0 0
SMALL
GASTEIGER

@<TRIPOS>ATOM
      1 P          20.6094   69.8789   -2.9583 P.3     1  UNL1        0.2189
      2 O          19.8415   68.5253   -3.4007 O.3     1  UNL1       -0.4371
      3 O          22.0673   69.9237   -3.3114 O.2     1  UNL1       -0.5170
      4 O          20.2620   70.0279   -1.3859 O.3     1  UNL1       -0.3112
      5 C          21.1383   70.7836   -0.5672 C.3     1  UNL1        0.1811
      6 O          20.6136   72.9825    0.2476 O.3     1  UNL1       -0.3308
      7 O          22.0303   74.0179   -2.1838 O.3     1  UNL1       -0.3794
      8 O          23.9021   74.3306   -0.2257 O.3     1  UNL1       -0.3779
      9 C          22.3317   72.8774   -1.3801 C.3     1  UNL1        0.1713
     10 C          22.9399   73.3093   -0.0625 C.3     1  UNL1        0.1895
     11 C          21.0147   72.2554   -0.9346 C.3     1  UNL1        0.1764
     12 C          21.7185   73.7759    0.7111 C.3     1  UNL1        0.2383
     13 H          21.6082   73.6952   -2.9982 H       1  UNL1        0.2105
     14 H          24.5931   73.9895   -0.8193 H       1  UNL1        0.2106
     15 O          21.7031   71.2659    2.0054 O.2     1  UNL1       -0.2464
     16 O          22.2812   73.1949    6.1507 O.2     1  UNL1       -0.2670
     17 N          21.8636   73.5929    2.1270 N.ar    1  UNL1       -0.2551
     18 N          21.9905   72.2282    4.0688 N.ar    1  UNL1       -0.2743
     19 C          21.8412   72.2899    2.6770 C.ar    1  UNL1        0.3323
     20 C          22.0257   74.6976    2.9557 C.ar    1  UNL1        0.0869
     21 C          22.1673   74.6222    4.2809 C.ar    1  UNL1        0.0795
     22 C          22.1541   73.2985    4.9345 C.ar    1  UNL1        0.2626
     23 H          21.9768   71.3015    4.4861 H       1  UNL1        0.1734
     24 O          19.7154   71.0417   -3.6394 O.3     1  UNL1       -0.2703
     25 P          18.2280   71.0029   -4.2709 P.3     1  UNL1        0.2208
     26 O          17.7047   72.5216   -4.0815 O.3     1  UNL1       -0.4371
     27 O          17.3309   69.9586   -3.6703 O.2     1  UNL1       -0.5170
     28 O          18.4622   70.8467   -5.8598 O.3     1  UNL1       -0.2858
     29 O          19.4572   72.7842   -6.7846 O.3     1  UNL1       -0.3226
     30 O          18.6706   70.5075  -10.1724 O.3     1  UNL1       -0.3794
     31 O          16.7295   70.6514   -8.0004 O.3     1  UNL1       -0.3775
     32 O          20.0353   72.8387   -9.5955 O.3     1  UNL1       -0.3792
     33 C          19.0135   70.7923   -8.8190 C.3     1  UNL1        0.1718
     34 C          17.8580   71.5118   -8.1150 C.3     1  UNL1        0.1968
     35 C          20.2670   71.6714   -8.8002 C.3     1  UNL1        0.1723
     36 C          18.2789   71.9745   -6.7146 C.3     1  UNL1        0.2706
     37 C          20.5684   72.1049   -7.3673 C.3     1  UNL1        0.1830
     38 H          19.4298   70.0557  -10.5785 H       1  UNL1        0.2105
     39 H          16.0293   71.1455   -7.5416 H       1  UNL1        0.2106
     40 H          19.4386   73.4313   -9.1078 H       1  UNL1        0.2106
     41 O          22.6546   72.6489   -6.4423 O.co2   1  UNL1       -0.5466
     42 O          21.7870   74.0997   -7.9719 O.co2   1  UNL1       -0.5466
     43 C          21.7092   73.0708   -7.3163 C.2     1  UNL1        0.0799
@<TRIPOS>UNITY_ATOM_ATTR
41 1
charge -1
@<TRIPOS>BOND
     1     1     4    1
     2     1    24    1
     3     1     2    1
     4     1     3    2
     5    25    28    1
     6    25    24    1
     7    25    26    1
     8    25    27    2
     9     6    11    1
    10     6    12    1
    11    29    36    1
    12    29    37    1
    13     7     9    1
    14     7    13    1
    15     8    10    1
    16     8    14    1
    17     4     5    1
    18    28    36    1
    19    30    33    1
    20    30    38    1
    21    31    34    1
    22    31    39    1
    23    32    35    1
    24    32    40    1
    25    41    43   ar
    26    15    19    2
    27    42    43   ar
    28    16    22    2
    29    17    12    1
    30    17    19   ar
    31    17    20   ar
    32    18    19   ar
    33    18    22   ar
    34    18    23    1
    35     9    10    1
    36     9    11    1
    37    10    12    1
    38    11     5    1
    39    33    34    1
    40    33    35    1
    41    34    36    1
    42    35    37    1
    43    37    43    1
    44    20    21   ar
    45    21    22   ar
@<TRIPOS>MOLECULE
UDP-glaA
 43 45 0 0 0
SMALL
GASTEIGER

@<TRIPOS>ATOM
      1 P          15.4821   73.5815   -4.3323 P.3     1  UNL1        0.2189
      2 O          14.4357   72.5305   -3.6860 O.3     1  UNL1       -0.4371
      3 O          15.3087   75.0035   -3.8851 O.2     1  UNL1       -0.5170
      4 O          15.3585   73.3254   -5.9244 O.3     1  UNL1       -0.3112
      5 C          15.7773   74.3499   -6.8099 C.3     1  UNL1        0.1811
      6 O          14.7351   73.6863   -8.8709 O.3     1  UNL1       -0.3308
      7 O          17.4853   73.7480  -10.0643 O.3     1  UNL1       -0.3794
      8 O          16.4145   76.1076  -10.9137 O.3     1  UNL1       -0.3779
      9 C          16.9117   74.5997   -9.0726 C.3     1  UNL1        0.1713
     10 C          15.9252   75.5562   -9.7087 C.3     1  UNL1        0.1895
     11 C          16.0075   73.7498   -8.1896 C.3     1  UNL1        0.1764
     12 C          14.7144   74.6642   -9.9238 C.3     1  UNL1        0.2383
     13 H          18.0789   73.1288   -9.6063 H       1  UNL1        0.2105
     14 H          17.2456   76.5692  -10.7082 H       1  UNL1        0.2106
     15 O          13.7081   76.2817  -12.0086 O.2     1  UNL1       -0.2464
     16 O           9.9642   77.4125   -9.5709 O.2     1  UNL1       -0.2670
     17 N          13.4792   75.3920   -9.8612 N.ar    1  UNL1       -0.2551
     18 N          11.8447   76.8441  -10.7931 N.ar    1  UNL1       -0.2743
     19 C          13.0646   76.1762  -10.9630 C.ar    1  UNL1        0.3323
     20 C          12.6924   75.3249   -8.7167 C.ar    1  UNL1        0.0869
     21 C          11.5315   75.9673   -8.5703 C.ar    1  UNL1        0.0795
     22 C          11.0274   76.8084   -9.6740 C.ar    1  UNL1        0.2626
     23 H          11.5271   77.4144  -11.5722 H       1  UNL1        0.1734
     24 O          16.9182   72.9320   -3.9704 O.3     1  UNL1       -0.2703
     25 P          17.5532   71.4917   -4.3374 P.3     1  UNL1        0.2208
     26 O          17.8806   71.6218   -5.9160 O.3     1  UNL1       -0.4371
     27 O          16.6790   70.3239   -3.9798 O.2     1  UNL1       -0.5170
     28 O          18.9984   71.4870   -3.6196 O.3     1  UNL1       -0.2858
     29 O          21.0741   71.2457   -4.7299 O.3     1  UNL1       -0.3226
     30 O          21.9633   69.8649   -0.9112 O.3     1  UNL1       -0.3794
     31 O          19.4355   69.1672   -2.1877 O.3     1  UNL1       -0.3775
     32 O          23.3777   70.4620   -3.2075 O.3     1  UNL1       -0.3792
     33 C          21.3410   70.6522   -1.9228 C.3     1  UNL1        0.1718
     34 C          20.5334   69.7611   -2.8724 C.3     1  UNL1        0.1968
     35 C          22.4241   71.4026   -2.7027 C.3     1  UNL1        0.1723
     36 C          20.0024   70.5736   -4.0599 C.3     1  UNL1        0.2706
     37 C          21.7907   72.1402   -3.8803 C.3     1  UNL1        0.1830
     38 H          22.4641   70.4684   -0.3363 H       1  UNL1        0.2105
     39 H          18.9500   68.6217   -2.8293 H       1  UNL1        0.2106
     40 H          22.9743   69.9817   -3.9503 H       1  UNL1        0.2106
     41 O          23.9468   73.0525   -4.0314 O.co2   1  UNL1       -0.5466
     42 O          22.6939   73.0284   -5.9358 O.co2   1  UNL1       -0.5466
     43 C          22.8279   72.7818   -4.7460 C.2     1  UNL1        0.0799
@<TRIPOS>UNITY_ATOM_ATTR
41 1
charge -1
@<TRIPOS>BOND
     1     1     4    1
     2     1    24    1
     3     1     2    1
     4     1     3    2
     5    25    28    1
     6    25    24    1
     7    25    26    1
     8    25    27    2
     9     6    11    1
    10     6    12    1
    11    29    36    1
    12    29    37    1
    13     7     9    1
    14     7    13    1
    15     8    10    1
    16     8    14    1
    17     4     5    1
    18    28    36    1
    19    30    33    1
    20    30    38    1
    21    31    34    1
    22    31    39    1
    23    32    35    1
    24    32    40    1
    25    41    43   ar
    26    15    19    2
    27    42    43   ar
    28    16    22    2
    29    17    12    1
    30    17    19   ar
    31    17    20   ar
    32    18    19   ar
    33    18    22   ar
    34    18    23    1
    35     9    10    1
    36     9    11    1
    37    10    12    1
    38    11     5    1
    39    33    34    1
    40    33    35    1
    41    34    36    1
    42    35    37    1
    43    37    43    1
    44    20    21   ar
    45    21    22   ar
@<TRIPOS>MOLECULE
UDP-glaA
 43 45 0 0 0
SMALL
GASTEIGER

@<TRIPOS>ATOM
      1 P          22.0751   72.7338   -4.3492 P.3     1  UNL1        0.2189
      2 O          21.9713   72.9697   -5.9463 O.3     1  UNL1       -0.4371
      3 O          23.3080   72.0087   -3.8952 O.2     1  UNL1       -0.5170
      4 O          20.6676   72.0352   -3.9662 O.3     1  UNL1       -0.3112
      5 C          19.9002   71.4453   -5.0017 C.3     1  UNL1        0.1811
      6 O          17.6842   72.3606   -4.8416 O.3     1  UNL1       -0.3308
      7 O          16.7705   69.5609   -4.2775 O.3     1  UNL1       -0.3794
      8 O          16.1250   69.8794   -6.9076 O.3     1  UNL1       -0.3779
      9 C          17.8025   70.0151   -5.1531 C.3     1  UNL1        0.1713
     10 C          17.2009   70.6380   -6.3951 C.3     1  UNL1        0.1895
     11 C          18.4842   71.2083   -4.4964 C.3     1  UNL1        0.1764
     12 C          16.7639   72.0006   -5.8851 C.3     1  UNL1        0.2383
     13 H          17.2014   69.2065   -3.4811 H       1  UNL1        0.2105
     14 H          16.4634   68.9897   -7.1077 H       1  UNL1        0.2106
     15 O          18.5713   72.0040   -8.0551 O.2     1  UNL1       -0.2464
     16 O          16.8147   75.9135   -9.7489 O.2     1  UNL1       -0.2670
     17 N          16.8008   73.0065   -6.9079 N.ar    1  UNL1       -0.2551
     18 N          17.6957   73.9511   -8.8968 N.ar    1  UNL1       -0.2743
     19 C          17.7484   72.9159   -7.9542 C.ar    1  UNL1        0.3323
     20 C          15.9044   74.0687   -6.8681 C.ar    1  UNL1        0.0869
     21 C          15.8665   75.0477   -7.7748 C.ar    1  UNL1        0.0795
     22 C          16.8231   75.0282   -8.8992 C.ar    1  UNL1        0.2626
     23 H          18.3682   73.9069   -9.6577 H       1  UNL1        0.1734
     24 O          21.9136   74.2276   -3.7511 O.3     1  UNL1       -0.2703
     25 P          22.8308   75.0582   -2.7112 P.3     1  UNL1        0.2208
     26 O          21.8959   76.3174   -2.3156 O.3     1  UNL1       -0.4371
     27 O          24.1829   75.4339   -3.2465 O.2     1  UNL1       -0.5170
     28 O          22.8705   74.1452   -1.3812 O.3     1  UNL1       -0.2858
     29 O          21.3728   72.4246   -0.7520 O.3     1  UNL1       -0.3226
     30 O          22.6555   73.8543    2.9345 O.3     1  UNL1       -0.3794
     31 O          22.0647   75.6989    0.7541 O.3     1  UNL1       -0.3775
     32 O          21.1567   71.7209    2.0223 O.3     1  UNL1       -0.3792
     33 C          22.7218   73.5007    1.5558 C.3     1  UNL1        0.1718
     34 C          21.7119   74.3197    0.7449 C.3     1  UNL1        0.1968
     35 C          22.4199   72.0064    1.4127 C.3     1  UNL1        0.1723
     36 C          21.6539   73.8274   -0.7066 C.3     1  UNL1        0.2706
     37 C          22.3459   71.6373   -0.0673 C.3     1  UNL1        0.1830
     38 H          23.3081   73.3110    3.4084 H       1  UNL1        0.2105
     39 H          21.4045   76.1742    0.2221 H       1  UNL1        0.2106
     40 H          20.4517   72.0642    1.4476 H       1  UNL1        0.2106
     41 O          21.7945   69.9249   -1.5731 O.co2   1  UNL1       -0.5466
     42 O          21.7277   69.4156    0.6480 O.co2   1  UNL1       -0.5466
     43 C          21.9252   70.2144   -0.2560 C.2     1  UNL1        0.0799
@<TRIPOS>UNITY_ATOM_ATTR
41 1
charge -1
@<TRIPOS>BOND
     1     1     4    1
     2     1    24    1
     3     1     2    1
     4     1     3    2
     5    25    28    1
     6    25    24    1
     7    25    26    1
     8    25    27    2
     9     6    11    1
    10     6    12    1
    11    29    36    1
    12    29    37    1
    13     7     9    1
    14     7    13    1
    15     8    10    1
    16     8    14    1
    17     4     5    1
    18    28    36    1
    19    30    33    1
    20    30    38    1
    21    31    34    1
    22    31    39    1
    23    32    35    1
    24    32    40    1
    25    41    43   ar
    26    15    19    2
    27    42    43   ar
    28    16    22    2
    29    17    12    1
    30    17    19   ar
    31    17    20   ar
    32    18    19   ar
    33    18    22   ar
    34    18    23    1
    35     9    10    1
    36     9    11    1
    37    10    12    1
    38    11     5    1
    39    33    34    1
    40    33    35    1
    41    34    36    1
    42    35    37    1
    43    37    43    1
    44    20    21   ar
    45    21    22   ar
@<TRIPOS>MOLECULE
UDP-glaA
 43 45 0 0 0
SMALL
GASTEIGER

@<TRIPOS>ATOM
      1 P          18.3863   74.4518   -1.2598 P.3     1  UNL1        0.2189
      2 O          16.9617   74.1218   -0.5677 O.3     1  UNL1       -0.4371
      3 O          18.4990   75.8259   -1.8523 O.2     1  UNL1       -0.5170
      4 O          18.6150   73.2229   -2.2860 O.3     1  UNL1       -0.3112
      5 C          17.6243   72.9659   -3.2666 C.3     1  UNL1        0.1811
      6 O          16.8569   71.0983   -4.5695 O.3     1  UNL1       -0.3308
      7 O          17.9483   69.3629   -2.3813 O.3     1  UNL1       -0.3794
      8 O          19.8874   69.2023   -4.2917 O.3     1  UNL1       -0.3779
      9 C          18.4585   70.5914   -2.8991 C.3     1  UNL1        0.1713
     10 C          19.0891   70.3673   -4.2573 C.3     1  UNL1        0.1895
     11 C          17.2736   71.4850   -3.2414 C.3     1  UNL1        0.1764
     12 C          17.8702   70.2668   -5.1586 C.3     1  UNL1        0.2383
     13 H          17.5206   69.5622   -1.5310 H       1  UNL1        0.2105
     14 H          20.5770   69.2999   -3.6128 H       1  UNL1        0.2106
     15 O          16.0453   70.0730   -7.3051 O.2     1  UNL1       -0.2464
     16 O          18.9957   72.0634  -10.2329 O.2     1  UNL1       -0.2670
     17 N          18.1350   70.7267   -6.4919 N.ar    1  UNL1       -0.2551
     18 N          17.5159   71.0638   -8.7617 N.ar    1  UNL1       -0.2743
     19 C          17.1512   70.5815   -7.4978 C.ar    1  UNL1        0.3323
     20 C          19.3589   71.3142   -6.7923 C.ar    1  UNL1        0.0869
     21 C          19.6914   71.7696   -8.0022 C.ar    1  UNL1        0.0795
     22 C          18.7208   71.6552   -9.1087 C.ar    1  UNL1        0.2626
     23 H          16.8243   70.9693   -9.5006 H       1  UNL1        0.1734
     24 O          19.4445   74.1393   -0.0775 O.3     1  UNL1       -0.2703
     25 P          20.9312   74.7128    0.1937 P.3     1  UNL1        0.2208
     26 O          21.5326   73.6828    1.2863 O.3     1  UNL1       -0.4371
     27 O          20.9681   76.1541    0.6142 O.2     1  UNL1       -0.5170
     28 O          21.7465   74.3926   -1.1615 O.3     1  UNL1       -0.2858
     29 O          22.6098   72.2318   -0.7314 O.3     1  UNL1       -0.3226
     30 O          23.5847   72.7781   -4.7352 O.3     1  UNL1       -0.3794
     31 O          23.8712   74.9664   -2.8286 O.3     1  UNL1       -0.3775
     32 O          23.6637   70.6995   -2.9177 O.3     1  UNL1       -0.3792
     33 C          22.8330   72.8837   -3.5293 C.3     1  UNL1        0.1718
     34 C          23.6470   73.6113   -2.4541 C.3     1  UNL1        0.1968
     35 C          22.4687   71.4766   -3.0480 C.3     1  UNL1        0.1723
     36 C          22.9173   73.5788   -1.1055 C.3     1  UNL1        0.2706
     37 C          21.7865   71.5612   -1.6843 C.3     1  UNL1        0.1830
     38 H          23.0329   72.3100   -5.3848 H       1  UNL1        0.2105
     39 H          24.3802   75.3875   -2.1156 H       1  UNL1        0.2106
     40 H          24.1433   71.0006   -2.1275 H       1  UNL1        0.2106
     41 O          21.5109   69.2684   -2.0976 O.co2   1  UNL1       -0.5466
     42 O          21.3605   69.9580    0.0701 O.co2   1  UNL1       -0.5466
     43 C          21.5290   70.2020   -1.1159 C.2     1  UNL1        0.0799
@<TRIPOS>UNITY_ATOM_ATTR
41 1
charge -1
@<TRIPOS>BOND
     1     1     4    1
     2     1    24    1
     3     1     2    1
     4     1     3    2
     5    25    28    1
     6    25    24    1
     7    25    26    1
     8    25    27    2
     9     6    11    1
    10     6    12    1
    11    29    36    1
    12    29    37    1
    13     7     9    1
    14     7    13    1
    15     8    10    1
    16     8    14    1
    17     4     5    1
    18    28    36    1
    19    30    33    1
    20    30    38    1
    21    31    34    1
    22    31    39    1
    23    32    35    1
    24    32    40    1
    25    41    43   ar
    26    15    19    2
    27    42    43   ar
    28    16    22    2
    29    17    12    1
    30    17    19   ar
    31    17    20   ar
    32    18    19   ar
    33    18    22   ar
    34    18    23    1
    35     9    10    1
    36     9    11    1
    37    10    12    1
    38    11     5    1
    39    33    34    1
    40    33    35    1
    41    34    36    1
    42    35    37    1
    43    37    43    1
    44    20    21   ar
    45    21    22   ar
@<TRIPOS>MOLECULE
UDP-glaA
 43 45 0 0 0
SMALL
GASTEIGER

@<TRIPOS>ATOM
      1 P          18.3802   69.9924   -3.1734 P.3     1  UNL1        0.2189
      2 O          17.1341   70.7519   -2.4751 O.3     1  UNL1       -0.4371
      3 O          19.0113   68.9146   -2.3415 O.2     1  UNL1       -0.5170
      4 O          19.3622   71.1935   -3.6302 O.3     1  UNL1       -0.3112
      5 C          19.8817   72.0593   -2.6354 C.3     1  UNL1        0.1811
      6 O          21.8851   73.1272   -1.8477 O.3     1  UNL1       -0.3308
      7 O          23.3813   70.9716   -3.2991 O.3     1  UNL1       -0.3794
      8 O          23.4682   70.1176   -0.7109 O.3     1  UNL1       -0.3779
      9 C          22.1420   70.8937   -2.5949 C.3     1  UNL1        0.1713
     10 C          22.3836   70.9344   -1.1007 C.3     1  UNL1        0.1895
     11 C          21.3851   72.1941   -2.8309 C.3     1  UNL1        0.1764
     12 C          22.6500   72.4112   -0.8641 C.3     1  UNL1        0.2383
     13 H          23.1745   70.9817   -4.2492 H       1  UNL1        0.2105
     14 H          23.2672   69.2091   -0.9944 H       1  UNL1        0.2106
     15 O          21.2936   70.7786    0.9987 O.2     1  UNL1       -0.2464
     16 O          21.1426   74.1589    4.1275 O.2     1  UNL1       -0.2670
     17 N          22.2448   72.8386    0.4446 N.ar    1  UNL1       -0.2551
     18 N          21.2188   72.4631    2.5553 N.ar    1  UNL1       -0.2743
     19 C          21.5681   71.9408    1.3030 C.ar    1  UNL1        0.3323
     20 C          22.5183   74.1351    0.8659 C.ar    1  UNL1        0.0869
     21 C          22.1791   74.6180    2.0633 C.ar    1  UNL1        0.0795
     22 C          21.4688   73.7453    3.0191 C.ar    1  UNL1        0.2626
     23 H          20.7309   71.8356    3.1888 H       1  UNL1        0.1734
     24 O          17.7545   69.4822   -4.5746 O.3     1  UNL1       -0.2703
     25 P          17.1401   70.3043   -5.8233 P.3     1  UNL1        0.2208
     26 O          16.3868   71.5478   -5.1143 O.3     1  UNL1       -0.4371
     27 O          16.2663   69.4855   -6.7298 O.2     1  UNL1       -0.5170
     28 O          18.4216   70.9634   -6.5493 O.3     1  UNL1       -0.2858
     29 O          19.8497   72.8501   -6.5308 O.3     1  UNL1       -0.3226
     30 O          18.3852   72.9044  -10.4208 O.3     1  UNL1       -0.3794
     31 O          16.6237   72.2752   -8.1831 O.3     1  UNL1       -0.3775
     32 O          20.3241   74.2538   -8.9891 O.3     1  UNL1       -0.3792
     33 C          18.8369   72.3603   -9.1837 C.3     1  UNL1        0.1718
     34 C          17.9312   72.8190   -8.0358 C.3     1  UNL1        0.1968
     35 C          20.2745   72.8243   -8.9341 C.3     1  UNL1        0.1723
     36 C          18.5057   72.3816   -6.6826 C.3     1  UNL1        0.2706
     37 C          20.7272   72.3699   -7.5482 C.3     1  UNL1        0.1830
     38 H          18.9877   72.5906  -11.1166 H       1  UNL1        0.2105
     39 H          16.0910   72.5843   -7.4311 H       1  UNL1        0.2106
     40 H          19.9176   74.6083   -8.1802 H       1  UNL1        0.2106
     41 O          22.4271   72.5733   -5.9442 O.co2   1  UNL1       -0.5466
     42 O          22.7821   73.5671   -7.9650 O.co2   1  UNL1       -0.5466
     43 C          22.0795   72.9115   -7.2093 C.2     1  UNL1        0.0799
@<TRIPOS>UNITY_ATOM_ATTR
41 1
charge -1
@<TRIPOS>BOND
     1     1     4    1
     2     1    24    1
     3     1     2    1
     4     1     3    2
     5    25    28    1
     6    25    24    1
     7    25    26    1
     8    25    27    2
     9     6    11    1
    10     6    12    1
    11    29    36    1
    12    29    37    1
    13     7     9    1
    14     7    13    1
    15     8    10    1
    16     8    14    1
    17     4     5    1
    18    28    36    1
    19    30    33    1
    20    30    38    1
    21    31    34    1
    22    31    39    1
    23    32    35    1
    24    32    40    1
    25    41    43   ar
    26    15    19    2
    27    42    43   ar
    28    16    22    2
    29    17    12    1
    30    17    19   ar
    31    17    20   ar
    32    18    19   ar
    33    18    22   ar
    34    18    23    1
    35     9    10    1
    36     9    11    1
    37    10    12    1
    38    11     5    1
    39    33    34    1
    40    33    35    1
    41    34    36    1
    42    35    37    1
    43    37    43    1
    44    20    21   ar
    45    21    22   ar
@<TRIPOS>MOLECULE
UDP-glaA
 43 45 0 0 0
SMALL
GASTEIGER

@<TRIPOS>ATOM
      1 P          19.0658   70.7531   -4.0341 P.3     1  UNL1        0.2189
      2 O          19.3874   70.2241   -5.5288 O.3     1  UNL1       -0.4371
      3 O          18.3978   69.7514   -3.1382 O.2     1  UNL1       -0.5170
      4 O          18.2551   72.1316   -4.2746 O.3     1  UNL1       -0.3112
      5 C          18.9042   73.3583   -3.9863 C.3     1  UNL1        0.1811
      6 O          18.5202   74.4408   -6.0970 O.3     1  UNL1       -0.3308
      7 O          16.0864   75.6447   -4.8247 O.3     1  UNL1       -0.3794
      8 O          15.0398   73.6026   -6.2979 O.3     1  UNL1       -0.3779
      9 C          16.6543   74.3481   -4.6401 C.3     1  UNL1        0.1713
     10 C          16.3715   73.4746   -5.8441 C.3     1  UNL1        0.1895
     11 C          18.1700   74.4869   -4.6961 C.3     1  UNL1        0.1764
     12 C          17.3842   73.9894   -6.8527 C.3     1  UNL1        0.2383
     13 H          16.3259   76.1792   -4.0485 H       1  UNL1        0.2105
     14 H          14.4545   73.3585   -5.5604 H       1  UNL1        0.2106
     15 O          16.3992   71.3428   -6.8693 O.2     1  UNL1       -0.2464
     16 O          19.0879   70.1701  -10.4238 O.2     1  UNL1       -0.2670
     17 N          17.8087   72.9721   -7.7715 N.ar    1  UNL1       -0.2551
     18 N          17.7391   70.7604   -8.6389 N.ar    1  UNL1       -0.2743
     19 C          17.2521   71.6740   -7.6948 C.ar    1  UNL1        0.3323
     20 C          18.7669   73.2650   -8.7356 C.ar    1  UNL1        0.0869
     21 C          19.2205   72.3830   -9.6291 C.ar    1  UNL1        0.0795
     22 C          18.6913   71.0048   -9.6164 C.ar    1  UNL1        0.2626
     23 H          17.3536   69.8207   -8.6022 H       1  UNL1        0.1734
     24 O          20.5082   71.2662   -3.5131 O.3     1  UNL1       -0.2703
     25 P          21.5381   70.6270   -2.4438 P.3     1  UNL1        0.2208
     26 O          22.9707   70.7613   -3.1825 O.3     1  UNL1       -0.4371
     27 O          21.1910   69.2307   -2.0131 O.2     1  UNL1       -0.5170
     28 O          21.5968   71.7006   -1.2406 O.3     1  UNL1       -0.2858
     29 O          23.3002   73.0049   -0.2422 O.3     1  UNL1       -0.3226
     30 O          21.0959   71.7754    3.0606 O.3     1  UNL1       -0.3794
     31 O          21.6447   69.9256    0.8736 O.3     1  UNL1       -0.3775
     32 O          23.1670   73.5374    2.5751 O.3     1  UNL1       -0.3792
     33 C          21.3568   72.1851    1.7211 C.3     1  UNL1        0.1718
     34 C          22.2892   71.1856    1.0285 C.3     1  UNL1        0.1968
     35 C          22.0017   73.5736    1.7447 C.3     1  UNL1        0.1723
     36 C          22.7128   71.7041   -0.3514 C.3     1  UNL1        0.2706
     37 C          22.4187   73.9699    0.3300 C.3     1  UNL1        0.1830
     38 H          20.5054   72.4368    3.4600 H       1  UNL1        0.2105
     39 H          22.2679   69.3307    0.4236 H       1  UNL1        0.2106
     40 H          23.8699   73.0619    2.1006 H       1  UNL1        0.2106
     41 O          22.3327   76.3015    0.0854 O.co2   1  UNL1       -0.5466
     42 O          24.3729   75.3766    0.5084 O.co2   1  UNL1       -0.5466
     43 C          23.1699   75.2631    0.3229 C.2     1  UNL1        0.0799
@<TRIPOS>UNITY_ATOM_ATTR
41 1
charge -1
@<TRIPOS>BOND
     1     1     4    1
     2     1    24    1
     3     1     2    1
     4     1     3    2
     5    25    28    1
     6    25    24    1
     7    25    26    1
     8    25    27    2
     9     6    11    1
    10     6    12    1
    11    29    36    1
    12    29    37    1
    13     7     9    1
    14     7    13    1
    15     8    10    1
    16     8    14    1
    17     4     5    1
    18    28    36    1
    19    30    33    1
    20    30    38    1
    21    31    34    1
    22    31    39    1
    23    32    35    1
    24    32    40    1
    25    41    43   ar
    26    15    19    2
    27    42    43   ar
    28    16    22    2
    29    17    12    1
    30    17    19   ar
    31    17    20   ar
    32    18    19   ar
    33    18    22   ar
    34    18    23    1
    35     9    10    1
    36     9    11    1
    37    10    12    1
    38    11     5    1
    39    33    34    1
    40    33    35    1
    41    34    36    1
    42    35    37    1
    43    37    43    1
    44    20    21   ar
    45    21    22   ar
@<TRIPOS>MOLECULE
UDP-glaA
 43 45 0 0 0
SMALL
GASTEIGER

@<TRIPOS>ATOM
      1 P          19.7605   72.2572   -4.3768 P.3     1  UNL1        0.2189
      2 O          18.9053   71.9801   -3.0317 O.3     1  UNL1       -0.4371
      3 O          19.6019   73.6327   -4.9556 O.2     1  UNL1       -0.5170
      4 O          19.3582   71.0328   -5.3537 O.3     1  UNL1       -0.3112
      5 C          19.8491   71.0376   -6.6834 C.3     1  UNL1        0.1811
      6 O          17.5963   71.6083   -7.2946 O.3     1  UNL1       -0.3308
      7 O          18.1654   70.2648   -9.9143 O.3     1  UNL1       -0.3794
      8 O          18.4251   72.9081  -10.5318 O.3     1  UNL1       -0.3779
      9 C          19.0330   71.0455   -9.0923 C.3     1  UNL1        0.1713
     10 C          18.6772   72.5134   -9.1991 C.3     1  UNL1        0.1895
     11 C          18.7005   70.7420   -7.6374 C.3     1  UNL1        0.1764
     12 C          17.4418   72.6036   -8.3196 C.3     1  UNL1        0.2383
     13 H          18.4047   69.3314   -9.7836 H       1  UNL1        0.2105
     14 H          19.2260   72.7176  -11.0500 H       1  UNL1        0.2106
     15 O          15.2537   73.3696   -6.7068 O.2     1  UNL1       -0.2464
     16 O          17.0069   77.5735   -6.0058 O.2     1  UNL1       -0.2670
     17 N          17.3009   73.8916   -7.7026 N.ar    1  UNL1       -0.2551
     18 N          16.1279   75.4626   -6.3592 N.ar    1  UNL1       -0.2743
     19 C          16.1629   74.1757   -6.9122 C.ar    1  UNL1        0.3323
     20 C          18.2842   74.8580   -7.8835 C.ar    1  UNL1        0.0869
     21 C          18.2365   76.0803   -7.3491 C.ar    1  UNL1        0.0795
     22 C          17.0812   76.4577   -6.5110 C.ar    1  UNL1        0.2626
     23 H          15.3186   75.6893   -5.7877 H       1  UNL1        0.1734
     24 O          21.2694   71.8845   -3.9299 O.3     1  UNL1       -0.2703
     25 P          21.8229   70.8025   -2.8643 P.3     1  UNL1        0.2208
     26 O          23.4191   70.8075   -3.1255 O.3     1  UNL1       -0.4371
     27 O          21.1814   69.4487   -2.9714 O.2     1  UNL1       -0.5170
     28 O          21.6419   71.5141   -1.4274 O.3     1  UNL1       -0.2858
     29 O          23.3056   72.8757   -0.4387 O.3     1  UNL1       -0.3226
     30 O          21.0651   71.7038    2.8607 O.3     1  UNL1       -0.3794
     31 O          21.6828   69.8017    0.7379 O.3     1  UNL1       -0.3775
     32 O          23.1146   73.4865    2.3594 O.3     1  UNL1       -0.3792
     33 C          21.3424   72.0793    1.5145 C.3     1  UNL1        0.1718
     34 C          22.3033   71.0765    0.8670 C.3     1  UNL1        0.1968
     35 C          21.9635   73.4788    1.5086 C.3     1  UNL1        0.1723
     36 C          22.7421   71.5624   -0.5200 C.3     1  UNL1        0.2706
     37 C          22.3983   73.8414    0.0903 C.3     1  UNL1        0.1830
     38 H          20.4568   72.3661    3.2307 H       1  UNL1        0.2105
     39 H          22.3236   69.2048    0.3159 H       1  UNL1        0.2106
     40 H          23.8334   73.0098    1.9108 H       1  UNL1        0.2106
     41 O          22.5936   76.0152    0.9506 O.co2   1  UNL1       -0.5466
     42 O          24.0779   75.4017   -0.6672 O.co2   1  UNL1       -0.5466
     43 C          23.1278   75.1467    0.0584 C.2     1  UNL1        0.0799
@<TRIPOS>UNITY_ATOM_ATTR
41 1
charge -1
@<TRIPOS>BOND
     1     1     4    1
     2     1    24    1
     3     1     2    1
     4     1     3    2
     5    25    28    1
     6    25    24    1
     7    25    26    1
     8    25    27    2
     9     6    11    1
    10     6    12    1
    11    29    36    1
    12    29    37    1
    13     7     9    1
    14     7    13    1
    15     8    10    1
    16     8    14    1
    17     4     5    1
    18    28    36    1
    19    30    33    1
    20    30    38    1
    21    31    34    1
    22    31    39    1
    23    32    35    1
    24    32    40    1
    25    41    43   ar
    26    15    19    2
    27    42    43   ar
    28    16    22    2
    29    17    12    1
    30    17    19   ar
    31    17    20   ar
    32    18    19   ar
    33    18    22   ar
    34    18    23    1
    35     9    10    1
    36     9    11    1
    37    10    12    1
    38    11     5    1
    39    33    34    1
    40    33    35    1
    41    34    36    1
    42    35    37    1
    43    37    43    1
    44    20    21   ar
    45    21    22   ar
@<TRIPOS>MOLECULE
UDP-glaA
 43 45 0 0 0
SMALL
GASTEIGER

@<TRIPOS>ATOM
      1 P          18.9967   70.3022   -3.2149 P.3     1  UNL1        0.2189
      2 O          18.6566   68.9052   -2.4732 O.3     1  UNL1       -0.4371
      3 O          18.5973   71.5346   -2.4575 O.2     1  UNL1       -0.5170
      4 O          18.3382   70.1347   -4.6825 O.3     1  UNL1       -0.3112
      5 C          18.9833   70.7436   -5.7880 C.3     1  UNL1        0.1811
      6 O          18.6293   72.9686   -6.6236 O.3     1  UNL1       -0.3308
      7 O          16.3850   71.8049   -8.2361 O.3     1  UNL1       -0.3794
      8 O          18.3893   72.0187  -10.0726 O.3     1  UNL1       -0.3779
      9 C          17.6463   71.2291   -7.8965 C.3     1  UNL1        0.1713
     10 C          18.7506   71.8631   -8.7159 C.3     1  UNL1        0.1895
     11 C          18.0013   71.6751   -6.4842 C.3     1  UNL1        0.1764
     12 C          18.9459   73.1927   -8.0073 C.3     1  UNL1        0.2383
     13 H          15.7159   71.3970   -7.6603 H       1  UNL1        0.2105
     14 H          18.1758   71.1363  -10.4217 H       1  UNL1        0.2106
     15 O          21.2359   71.5403   -7.9711 O.2     1  UNL1       -0.2464
     16 O          24.0711   75.1492   -8.3909 O.2     1  UNL1       -0.2670
     17 N          20.2944   73.6736   -8.1061 N.ar    1  UNL1       -0.2551
     18 N          22.6462   73.3385   -8.1797 N.ar    1  UNL1       -0.2743
     19 C          21.3741   72.7603   -8.0770 C.ar    1  UNL1        0.3323
     20 C          20.5367   75.0372   -8.2300 C.ar    1  UNL1        0.0869
     21 C          21.7554   75.5729   -8.3273 C.ar    1  UNL1        0.0795
     22 C          22.9371   74.6882   -8.3041 C.ar    1  UNL1        0.2626
     23 H          23.4376   72.7010   -8.1604 H       1  UNL1        0.1734
     24 O          20.5816   70.1782   -3.5118 O.3     1  UNL1       -0.2703
     25 P          21.8286   71.0723   -3.0037 P.3     1  UNL1        0.2208
     26 O          21.5248   72.5282   -3.6396 O.3     1  UNL1       -0.4371
     27 O          23.1751   70.5095   -3.3585 O.2     1  UNL1       -0.5170
     28 O          21.5800   71.2583   -1.4202 O.3     1  UNL1       -0.2858
     29 O          23.2057   72.7551   -0.5739 O.3     1  UNL1       -0.3226
     30 O          21.0821   71.7463    2.8543 O.3     1  UNL1       -0.3794
     31 O          21.7349   69.7162    0.8647 O.3     1  UNL1       -0.3775
     32 O          23.0458   73.5662    2.1748 O.3     1  UNL1       -0.3792
     33 C          21.3165   72.0304    1.4778 C.3     1  UNL1        0.1718
     34 C          22.3048   71.0207    0.8845 C.3     1  UNL1        0.1968
     35 C          21.8792   73.4490    1.3538 C.3     1  UNL1        0.1723
     36 C          22.6953   71.4181   -0.5445 C.3     1  UNL1        0.2706
     37 C          22.2701   73.7211   -0.0972 C.3     1  UNL1        0.1830
     38 H          20.4546   72.4099    3.1880 H       1  UNL1        0.2105
     39 H          22.3912   69.1152    0.4735 H       1  UNL1        0.2106
     40 H          23.7746   73.0861    1.7463 H       1  UNL1        0.2106
     41 O          24.2901   74.9123   -0.1643 O.co2   1  UNL1       -0.5466
     42 O          22.3681   76.1129   -0.4126 O.co2   1  UNL1       -0.5466
     43 C          22.9443   75.0482   -0.2427 C.2     1  UNL1        0.0799
@<TRIPOS>UNITY_ATOM_ATTR
41 1
charge -1
@<TRIPOS>BOND
     1     1     4    1
     2     1    24    1
     3     1     2    1
     4     1     3    2
     5    25    28    1
     6    25    24    1
     7    25    26    1
     8    25    27    2
     9     6    11    1
    10     6    12    1
    11    29    36    1
    12    29    37    1
    13     7     9    1
    14     7    13    1
    15     8    10    1
    16     8    14    1
    17     4     5    1
    18    28    36    1
    19    30    33    1
    20    30    38    1
    21    31    34    1
    22    31    39    1
    23    32    35    1
    24    32    40    1
    25    41    43   ar
    26    15    19    2
    27    42    43   ar
    28    16    22    2
    29    17    12    1
    30    17    19   ar
    31    17    20   ar
    32    18    19   ar
    33    18    22   ar
    34    18    23    1
    35     9    10    1
    36     9    11    1
    37    10    12    1
    38    11     5    1
    39    33    34    1
    40    33    35    1
    41    34    36    1
    42    35    37    1
    43    37    43    1
    44    20    21   ar
    45    21    22   ar
@<TRIPOS>MOLECULE
UDP-glaA
 43 45 0 0 0
SMALL
GASTEIGER

@<TRIPOS>ATOM
      1 P          20.6189   75.3379   -3.5349 P.3     1  UNL1        0.2189
      2 O          20.5081   74.8535   -1.9953 O.3     1  UNL1       -0.4371
      3 O          20.0461   76.6967   -3.8137 O.2     1  UNL1       -0.5170
      4 O          19.9724   74.1166   -4.3752 O.3     1  UNL1       -0.3112
      5 C          19.8595   72.8494   -3.7502 C.3     1  UNL1        0.1811
      6 O          17.7891   72.5081   -4.9213 O.3     1  UNL1       -0.3308
      7 O          16.8531   71.0666   -2.4642 O.3     1  UNL1       -0.3794
      8 O          17.5109   69.0195   -4.1413 O.3     1  UNL1       -0.3779
      9 C          18.1529   71.0968   -3.0535 C.3     1  UNL1        0.1713
     10 C          18.1797   70.2523   -4.3100 C.3     1  UNL1        0.1895
     11 C          18.3858   72.4970   -3.6056 C.3     1  UNL1        0.1764
     12 C          17.4888   71.1588   -5.3145 C.3     1  UNL1        0.2383
     13 H          16.8736   71.6508   -1.6872 H       1  UNL1        0.2105
     14 H          17.9459   68.5482   -3.4100 H       1  UNL1        0.2106
     15 O          15.8054   70.7429   -7.5435 O.2     1  UNL1       -0.2464
     16 O          19.3922   70.3582  -10.4114 O.2     1  UNL1       -0.2670
     17 N          17.9557   70.9480   -6.6550 N.ar    1  UNL1       -0.2551
     18 N          17.5926   70.5511   -8.9700 N.ar    1  UNL1       -0.2743
     19 C          17.0273   70.7478   -7.7032 C.ar    1  UNL1        0.3323
     20 C          19.3206   70.9406   -6.9205 C.ar    1  UNL1        0.0869
     21 C          19.8439   70.7522   -8.1339 C.ar    1  UNL1        0.0795
     22 C          18.9430   70.5350   -9.2832 C.ar    1  UNL1        0.2626
     23 H          16.9440   70.4046   -9.7388 H       1  UNL1        0.1734
     24 O          22.1994   75.1964   -3.8464 O.3     1  UNL1       -0.2703
     25 P          23.3381   74.2796   -3.1569 P.3     1  UNL1        0.2208
     26 O          24.0738   75.3022   -2.1424 O.3     1  UNL1       -0.4371
     27 O          24.2590   73.6039   -4.1321 O.2     1  UNL1       -0.5170
     28 O          22.5239   73.2685   -2.1984 O.3     1  UNL1       -0.2858
     29 O          22.9186   72.5524    0.0222 O.3     1  UNL1       -0.3226
     30 O          21.2928   69.1443   -1.7160 O.3     1  UNL1       -0.3794
     31 O          23.2134   70.7811   -3.1783 O.3     1  UNL1       -0.3775
     32 O          21.9824   69.9623    0.8307 O.3     1  UNL1       -0.3792
     33 C          21.5050   70.5313   -1.4679 C.3     1  UNL1        0.1718
     34 C          22.9543   70.9154   -1.7849 C.3     1  UNL1        0.1968
     35 C          21.1950   70.8245    0.0026 C.3     1  UNL1        0.1723
     36 C          23.2384   72.3614   -1.3599 C.3     1  UNL1        0.2706
     37 C          21.5520   72.2743    0.3232 C.3     1  UNL1        0.1830
     38 H          20.3657   68.9462   -1.5000 H       1  UNL1        0.2105
     39 H          24.1368   71.0433   -3.3316 H       1  UNL1        0.2106
     40 H          22.9030   70.2745    0.8142 H       1  UNL1        0.2106
     41 O          21.6930   73.8622    2.0443 O.co2   1  UNL1       -0.5466
     42 O          21.0241   71.7610    2.6227 O.co2   1  UNL1       -0.5466
     43 C          21.3873   72.5690    1.7802 C.2     1  UNL1        0.0799
@<TRIPOS>UNITY_ATOM_ATTR
41 1
charge -1
@<TRIPOS>BOND
     1     1     4    1
     2     1    24    1
     3     1     2    1
     4     1     3    2
     5    25    28    1
     6    25    24    1
     7    25    26    1
     8    25    27    2
     9     6    11    1
    10     6    12    1
    11    29    36    1
    12    29    37    1
    13     7     9    1
    14     7    13    1
    15     8    10    1
    16     8    14    1
    17     4     5    1
    18    28    36    1
    19    30    33    1
    20    30    38    1
    21    31    34    1
    22    31    39    1
    23    32    35    1
    24    32    40    1
    25    41    43   ar
    26    15    19    2
    27    42    43   ar
    28    16    22    2
    29    17    12    1
    30    17    19   ar
    31    17    20   ar
    32    18    19   ar
    33    18    22   ar
    34    18    23    1
    35     9    10    1
    36     9    11    1
    37    10    12    1
    38    11     5    1
    39    33    34    1
    40    33    35    1
    41    34    36    1
    42    35    37    1
    43    37    43    1
    44    20    21   ar
    45    21    22   ar
