@<TRIPOS>MOLECULE
UD2
 46 48 0 0 0
SMALL
GASTEIGER

@<TRIPOS>ATOM
      1 P          20.7995   71.1162   -3.1435 P.3     1  UNL1        0.2189
      2 O          21.0175   70.5412   -1.6558 O.3     1  UNL1       -0.4371
      3 O          20.8148   69.9981   -4.1123 O.2     1  UNL1       -0.5170
      4 O          19.3816   71.8758   -3.2227 O.3     1  UNL1       -0.3112
      5 C          18.2359   71.4626   -2.4758 C.3     1  UNL1        0.1811
      6 C          16.8893   70.5284   -5.6775 C.3     1  UNL1        0.2383
      7 C          17.1677   69.1811   -4.9636 C.3     1  UNL1        0.1895
      8 O          16.2388   68.1799   -5.3836 O.3     1  UNL1       -0.3779
      9 C          16.9475   69.5497   -3.4760 C.3     1  UNL1        0.1713
     10 C          17.1095   71.0814   -3.4396 C.3     1  UNL1        0.1764
     11 O          17.4398   71.5084   -4.7707 O.3     1  UNL1       -0.3308
     12 O          15.6337   69.1751   -3.0584 O.3     1  UNL1       -0.3794
     13 H          16.3724   67.3187   -4.9652 H       1  UNL1        0.2106
     14 H          15.4569   68.2266   -3.1173 H       1  UNL1        0.2105
     15 N          17.5755   70.5785   -6.9704 N.ar    1  UNL1       -0.2551
     16 C          16.8606   70.5075   -8.1074 C.ar    1  UNL1        0.3323
     17 N          17.4649   70.5509   -9.3096 N.ar    1  UNL1       -0.2743
     18 C          18.8058   70.6689   -9.3913 C.ar    1  UNL1        0.2626
     19 C          19.5706   70.7457   -8.2025 C.ar    1  UNL1        0.0795
     20 C          18.9381   70.7040   -7.0110 C.ar    1  UNL1        0.0869
     21 O          15.6508   70.4011   -8.0488 O.2     1  UNL1       -0.2464
     22 O          19.3539   70.7088  -10.4788 O.2     1  UNL1       -0.2670
     23 H          16.9345   70.4973  -10.1195 H       1  UNL1        0.1734
     24 O          21.9820   72.1502   -3.4981 O.3     1  UNL1       -0.2703
     25 P          23.5650   72.1817   -3.2045 P.3     1  UNL1        0.2208
     26 O          24.1329   70.6751   -3.1645 O.3     1  UNL1       -0.4371
     27 O          24.2506   72.9384   -4.2748 O.2     1  UNL1       -0.5170
     28 O          23.8335   72.8946   -1.7859 O.3     1  UNL1       -0.2865
     29 C          22.9389   73.8502   -1.2133 C.3     1  UNL1        0.2611
     30 C          23.7401   74.9047   -0.4459 C.3     1  UNL1        0.1582
     31 C          24.4928   74.2256    0.7025 C.3     1  UNL1        0.1625
     32 C          23.4869   73.4963    1.5972 C.3     1  UNL1        0.1686
     33 C          22.6953   72.4958    0.7508 C.3     1  UNL1        0.1760
     34 O          25.1854   75.2135    1.4692 O.3     1  UNL1       -0.3801
     35 O          22.5906   74.4442    2.1798 O.3     1  UNL1       -0.3794
     36 O          22.0446   73.1875   -0.3170 O.3     1  UNL1       -0.3263
     37 H          25.6854   74.8531    2.2144 H       1  UNL1        0.2105
     38 H          21.9236   74.0510    2.7599 H       1  UNL1        0.2105
     39 C          24.6027   76.8619   -1.6133 C.2     1  UNL1        0.2231
     40 C          25.5888   77.5198   -2.5424 C.3     1  UNL1        0.0946
     41 N          24.6996   75.5438   -1.3499 N.am    1  UNL1       -0.2994
     42 O          23.7201   77.5186   -1.1014 O.2     1  UNL1       -0.2751
     43 H          25.4045   75.0182   -1.7598 H       1  UNL1        0.1496
     44 C          21.6470   71.8053    1.6253 C.3     1  UNL1        0.1693
     45 O          21.5343   70.4333    1.2415 O.3     1  UNL1       -0.3794
     46 H          20.8858   69.9326    1.7552 H       1  UNL1        0.2105
@<TRIPOS>BOND
     1    29    30    1
     2    30    41    1
     3    30    31    1
     4    31    34    1
     5    31    32    1
     6    32    35    1
     7    32    33    1
     8    33    36    1
     9    33    44    1
    10    39    40    1
    11    39    42    2
    12    39    41   am
    13    41    43    1
    14    29    28    1
    15    34    37    1
    16    35    38    1
    17    29    36    1
    18    44    45    1
    19    45    46    1
    20    15     6    1
    21    15    16   ar
    22    16    21    2
    23    16    17   ar
    24    17    23    1
    25    17    18   ar
    26    18    19   ar
    27    19    20   ar
    28    15    20   ar
    29    18    22    2
    30     6     7    1
    31     6    11    1
    32     7     9    1
    33     7     8    1
    34     8    13    1
    35     9    10    1
    36     9    12    1
    37    10     5    1
    38    10    11    1
    39    12    14    1
    40     5     4    1
    41     4     1    1
    42     1     2    1
    43     1    24    1
    44     1     3    2
    45    24    25    1
    46    28    25    1
    47    25    26    1
    48    25    27    2
@<TRIPOS>MOLECULE
UD2
 46 48 0 0 0
SMALL
GASTEIGER

@<TRIPOS>ATOM
      1 P          21.2051   71.6962   -2.4752 P.3     1  UNL1        0.2189
      2 O          22.5270   71.6125   -3.3901 O.3     1  UNL1       -0.4371
      3 O          20.8079   73.1117   -2.3096 O.2     1  UNL1       -0.5170
      4 O          20.0096   70.8827   -3.1841 O.3     1  UNL1       -0.3112
      5 C          18.8622   70.4120   -2.4746 C.3     1  UNL1        0.1811
      6 C          17.1176   70.4472   -5.6197 C.3     1  UNL1        0.2383
      7 C          16.9928   68.9850   -5.1212 C.3     1  UNL1        0.1895
      8 O          15.7730   68.3941   -5.5738 O.3     1  UNL1       -0.3779
      9 C          16.9818   69.1655   -3.5834 C.3     1  UNL1        0.1713
     10 C          17.6226   70.5489   -3.3621 C.3     1  UNL1        0.1764
     11 O          17.9986   71.0576   -4.6518 O.3     1  UNL1       -0.3308
     12 O          15.6416   69.1497   -3.0888 O.3     1  UNL1       -0.3794
     13 H          15.6493   67.4789   -5.2880 H       1  UNL1        0.2106
     14 H          15.1704   68.3220   -3.2540 H       1  UNL1        0.2105
     15 N          17.7131   70.4871   -6.9572 N.ar    1  UNL1       -0.2551
     16 C          16.9188   70.4480   -8.0418 C.ar    1  UNL1        0.3323
     17 N          17.4388   70.4830   -9.2830 N.ar    1  UNL1       -0.2743
     18 C          18.7737   70.5601   -9.4576 C.ar    1  UNL1        0.2626
     19 C          19.6217   70.6030   -8.3248 C.ar    1  UNL1        0.0795
     20 C          19.0728   70.5707   -7.0922 C.ar    1  UNL1        0.0869
     21 O          15.7132   70.3787   -7.8993 O.2     1  UNL1       -0.2464
     22 O          19.2456   70.5923  -10.5805 O.2     1  UNL1       -0.2670
     23 H          16.8518   70.4528  -10.0541 H       1  UNL1        0.1734
     24 O          21.5097   71.0514   -1.0313 O.3     1  UNL1       -0.2703
     25 P          22.5217   71.4188    0.1661 P.3     1  UNL1        0.2208
     26 O          22.6239   70.1739    1.1827 O.3     1  UNL1       -0.4371
     27 O          23.8605   71.7109   -0.3913 O.2     1  UNL1       -0.5170
     28 O          21.9740   72.7119    0.9538 O.3     1  UNL1       -0.2865
     29 C          21.7280   72.7198    2.3612 C.3     1  UNL1        0.2611
     30 C          20.8232   73.9024    2.7154 C.3     1  UNL1        0.1582
     31 C          21.5421   75.2080    2.3616 C.3     1  UNL1        0.1625
     32 C          22.8805   75.2585    3.1035 C.3     1  UNL1        0.1686
     33 C          23.7062   74.0233    2.7341 C.3     1  UNL1        0.1760
     34 O          20.7348   76.3194    2.7568 O.3     1  UNL1       -0.3801
     35 O          22.6454   75.2725    4.5126 O.3     1  UNL1       -0.3794
     36 O          22.9682   72.8439    3.0603 O.3     1  UNL1       -0.3263
     37 H          21.1292   77.1806    2.5616 H       1  UNL1        0.2105
     38 H          23.4517   75.3035    5.0464 H       1  UNL1        0.2105
     39 C          19.4645   74.4278    0.7621 C.2     1  UNL1        0.2231
     40 C          18.1817   74.3319   -0.0214 C.3     1  UNL1        0.0946
     41 N          19.5750   73.8088    1.9540 N.am    1  UNL1       -0.2994
     42 O          20.3993   75.0627    0.3203 O.2     1  UNL1       -0.2751
     43 H          18.8276   73.3019    2.3081 H       1  UNL1        0.1496
     44 C          25.0205   74.0358    3.5170 C.3     1  UNL1        0.1693
     45 O          25.4236   75.3868    3.7508 O.3     1  UNL1       -0.3794
     46 H          26.2514   75.4711    4.2435 H       1  UNL1        0.2105
@<TRIPOS>BOND
     1    29    30    1
     2    30    41    1
     3    30    31    1
     4    31    34    1
     5    31    32    1
     6    32    35    1
     7    32    33    1
     8    33    36    1
     9    33    44    1
    10    39    40    1
    11    39    42    2
    12    39    41   am
    13    41    43    1
    14    29    28    1
    15    34    37    1
    16    35    38    1
    17    29    36    1
    18    44    45    1
    19    45    46    1
    20    15     6    1
    21    15    16   ar
    22    16    21    2
    23    16    17   ar
    24    17    23    1
    25    17    18   ar
    26    18    19   ar
    27    19    20   ar
    28    15    20   ar
    29    18    22    2
    30     6     7    1
    31     6    11    1
    32     7     9    1
    33     7     8    1
    34     8    13    1
    35     9    10    1
    36     9    12    1
    37    10     5    1
    38    10    11    1
    39    12    14    1
    40     5     4    1
    41     4     1    1
    42     1     2    1
    43     1    24    1
    44     1     3    2
    45    24    25    1
    46    28    25    1
    47    25    26    1
    48    25    27    2
@<TRIPOS>MOLECULE
UD2
 46 48 0 0 0
SMALL
GASTEIGER

@<TRIPOS>ATOM
      1 P          20.5630   70.6723   -3.1281 P.3     1  UNL1        0.2189
      2 O          20.1407   70.2684   -1.6281 O.3     1  UNL1       -0.4371
      3 O          20.3608   69.5146   -4.0268 O.2     1  UNL1       -0.5170
      4 O          19.6547   71.9048   -3.6278 O.3     1  UNL1       -0.3112
      5 C          18.4191   72.2620   -3.0055 C.3     1  UNL1        0.1811
      6 C          16.9752   71.0289   -6.0602 C.3     1  UNL1        0.2383
      7 C          17.0750   69.7820   -5.1452 C.3     1  UNL1        0.1895
      8 O          16.0264   68.8544   -5.4309 O.3     1  UNL1       -0.3779
      9 C          16.8988   70.3979   -3.7356 C.3     1  UNL1        0.1713
     10 C          17.2566   71.8842   -3.9267 C.3     1  UNL1        0.1764
     11 O          17.6440   72.0580   -5.2990 O.3     1  UNL1       -0.3308
     12 O          15.5462   70.2610   -3.2969 O.3     1  UNL1       -0.3794
     13 H          16.0465   68.0571   -4.8845 H       1  UNL1        0.2106
     14 H          15.2489   69.3447   -3.2162 H       1  UNL1        0.2105
     15 N          17.6668   70.7939   -7.3296 N.ar    1  UNL1       -0.2551
     16 C          16.9517   70.5991   -8.4519 C.ar    1  UNL1        0.3323
     17 N          17.5609   70.3807   -9.6324 N.ar    1  UNL1       -0.2743
     18 C          18.9072   70.3558   -9.7070 C.ar    1  UNL1        0.2626
     19 C          19.6723   70.5604   -8.5336 C.ar    1  UNL1        0.0795
     20 C          19.0352   70.7813   -7.3645 C.ar    1  UNL1        0.0869
     21 O          15.7371   70.6191   -8.3995 O.2     1  UNL1       -0.2464
     22 O          19.4598   70.1587  -10.7749 O.2     1  UNL1       -0.2670
     23 H          17.0303   70.2410  -10.4317 H       1  UNL1        0.1734
     24 O          22.1138   71.1055   -3.1511 O.3     1  UNL1       -0.2703
     25 P          22.8835   72.5130   -3.0107 P.3     1  UNL1        0.2208
     26 O          24.1818   72.5115   -3.9637 O.3     1  UNL1       -0.4371
     27 O          21.9789   73.6124   -3.4122 O.2     1  UNL1       -0.5170
     28 O          23.3402   72.7246   -1.4812 O.3     1  UNL1       -0.2865
     29 C          22.5773   72.2537   -0.3688 C.3     1  UNL1        0.2611
     30 C          22.0767   73.4465    0.4494 C.3     1  UNL1        0.1582
     31 C          23.2800   74.2159    1.0030 C.3     1  UNL1        0.1625
     32 C          24.1431   73.2629    1.8344 C.3     1  UNL1        0.1686
     33 C          24.5642   72.0770    0.9626 C.3     1  UNL1        0.1760
     34 O          22.8216   75.2887    1.8289 O.3     1  UNL1       -0.3801
     35 O          23.3909   72.7905    2.9534 O.3     1  UNL1       -0.3794
     36 O          23.3991   71.4238    0.4547 O.3     1  UNL1       -0.3263
     37 H          23.5323   75.8201    2.2132 H       1  UNL1        0.2105
     38 H          23.8767   72.1797    3.5252 H       1  UNL1        0.2105
     39 C          19.9397   74.3431   -0.3037 C.2     1  UNL1        0.2231
     40 C          19.1233   75.2512   -1.1853 C.3     1  UNL1        0.0946
     41 N          21.2832   74.3300   -0.4087 N.am    1  UNL1       -0.2994
     42 O          19.3880   73.6226    0.5018 O.2     1  UNL1       -0.2751
     43 H          21.7247   74.9051   -1.0532 H       1  UNL1        0.1496
     44 C          25.3773   71.0901    1.8025 C.3     1  UNL1        0.1693
     45 O          24.5212   70.0486    2.2764 O.3     1  UNL1       -0.3794
     46 H          24.9706   69.3852    2.8177 H       1  UNL1        0.2105
@<TRIPOS>BOND
     1    29    30    1
     2    30    41    1
     3    30    31    1
     4    31    34    1
     5    31    32    1
     6    32    35    1
     7    32    33    1
     8    33    36    1
     9    33    44    1
    10    39    40    1
    11    39    42    2
    12    39    41   am
    13    41    43    1
    14    29    28    1
    15    34    37    1
    16    35    38    1
    17    29    36    1
    18    44    45    1
    19    45    46    1
    20    15     6    1
    21    15    16   ar
    22    16    21    2
    23    16    17   ar
    24    17    23    1
    25    17    18   ar
    26    18    19   ar
    27    19    20   ar
    28    15    20   ar
    29    18    22    2
    30     6     7    1
    31     6    11    1
    32     7     9    1
    33     7     8    1
    34     8    13    1
    35     9    10    1
    36     9    12    1
    37    10     5    1
    38    10    11    1
    39    12    14    1
    40     5     4    1
    41     4     1    1
    42     1     2    1
    43     1    24    1
    44     1     3    2
    45    24    25    1
    46    28    25    1
    47    25    26    1
    48    25    27    2
@<TRIPOS>MOLECULE
UD2
 46 48 0 0 0
SMALL
GASTEIGER

@<TRIPOS>ATOM
      1 P          23.4480   72.2702   -3.3153 P.3     1  UNL1        0.2189
      2 O          24.3594   73.0998   -4.3509 O.3     1  UNL1       -0.4371
      3 O          24.0247   70.9218   -3.1202 O.2     1  UNL1       -0.5170
      4 O          23.4010   73.0433   -1.9034 O.3     1  UNL1       -0.3112
      5 C          22.1801   73.4165   -1.2619 C.3     1  UNL1        0.1811
      6 C          23.4978   72.2826    1.8868 C.3     1  UNL1        0.2383
      7 C          22.9026   73.6802    2.1941 C.3     1  UNL1        0.1895
      8 O          22.4252   73.7467    3.5392 O.3     1  UNL1       -0.3779
      9 C          21.7295   73.7627    1.1868 C.3     1  UNL1        0.1713
     10 C          22.0905   72.7292    0.1028 C.3     1  UNL1        0.1764
     11 O          23.3664   72.1699    0.4530 O.3     1  UNL1       -0.3308
     12 O          20.4998   73.4117    1.8234 O.3     1  UNL1       -0.3794
     13 H          22.0439   74.6019    3.7797 H       1  UNL1        0.2106
     14 H          20.2534   73.9953    2.5536 H       1  UNL1        0.2105
     15 N          24.9068   72.2236    2.2823 N.ar    1  UNL1       -0.2551
     16 C          25.5458   71.0403    2.2974 C.ar    1  UNL1        0.3323
     17 N          26.8404   70.9566    2.6569 N.ar    1  UNL1       -0.2743
     18 C          27.5205   72.0669    3.0078 C.ar    1  UNL1        0.2626
     19 C          26.8606   73.3193    2.9954 C.ar    1  UNL1        0.0795
     20 C          25.5635   73.3744    2.6267 C.ar    1  UNL1        0.0869
     21 O          24.9451   70.0310    1.9832 O.2     1  UNL1       -0.2464
     22 O          28.6924   71.9925    3.3330 O.2     1  UNL1       -0.2670
     23 H          27.2856   70.0953    2.6635 H       1  UNL1        0.1734
     24 O          21.9546   72.1357   -3.9027 O.3     1  UNL1       -0.2703
     25 P          21.2852   72.4400   -5.3352 P.3     1  UNL1        0.2208
     26 O          21.1838   74.0326   -5.5523 O.3     1  UNL1       -0.4371
     27 O          22.1186   71.8490   -6.4050 O.2     1  UNL1       -0.5170
     28 O          19.8102   71.7961   -5.3859 O.3     1  UNL1       -0.2865
     29 C          19.5768   70.3986   -5.5703 C.3     1  UNL1        0.2611
     30 C          18.3811   70.1990   -6.5047 C.3     1  UNL1        0.1582
     31 C          17.1301   70.7976   -5.8541 C.3     1  UNL1        0.1625
     32 C          16.9148   70.1414   -4.4876 C.3     1  UNL1        0.1686
     33 C          18.1674   70.3434   -3.6307 C.3     1  UNL1        0.1760
     34 O          15.9947   70.5509   -6.6867 O.3     1  UNL1       -0.3801
     35 O          16.6747   68.7438   -4.6614 O.3     1  UNL1       -0.3794
     36 O          19.2990   69.7917   -4.3067 O.3     1  UNL1       -0.3263
     37 H          15.1658   70.9041   -6.3355 H       1  UNL1        0.2105
     38 H          16.5300   68.2631   -3.8344 H       1  UNL1        0.2105
     39 C          19.0775   70.1633   -8.8395 C.2     1  UNL1        0.2231
     40 C          19.3429   70.8542  -10.1513 C.3     1  UNL1        0.0946
     41 N          18.6392   70.8719   -7.7803 N.am    1  UNL1       -0.2994
     42 O          19.2584   68.9680   -8.7358 O.2     1  UNL1       -0.2751
     43 H          18.4954   71.8277   -7.8625 H       1  UNL1        0.1496
     44 C          17.9835   69.6393   -2.2851 C.3     1  UNL1        0.1693
     45 O          16.8499   68.7716   -2.3517 O.3     1  UNL1       -0.3794
     46 H          16.6728   68.2912   -1.5314 H       1  UNL1        0.2105
@<TRIPOS>BOND
     1    29    30    1
     2    30    41    1
     3    30    31    1
     4    31    34    1
     5    31    32    1
     6    32    35    1
     7    32    33    1
     8    33    36    1
     9    33    44    1
    10    39    40    1
    11    39    42    2
    12    39    41   am
    13    41    43    1
    14    29    28    1
    15    34    37    1
    16    35    38    1
    17    29    36    1
    18    44    45    1
    19    45    46    1
    20    15     6    1
    21    15    16   ar
    22    16    21    2
    23    16    17   ar
    24    17    23    1
    25    17    18   ar
    26    18    19   ar
    27    19    20   ar
    28    15    20   ar
    29    18    22    2
    30     6     7    1
    31     6    11    1
    32     7     9    1
    33     7     8    1
    34     8    13    1
    35     9    10    1
    36     9    12    1
    37    10     5    1
    38    10    11    1
    39    12    14    1
    40     5     4    1
    41     4     1    1
    42     1     2    1
    43     1    24    1
    44     1     3    2
    45    24    25    1
    46    28    25    1
    47    25    26    1
    48    25    27    2
@<TRIPOS>MOLECULE
UD2
 46 48 0 0 0
SMALL
GASTEIGER

@<TRIPOS>ATOM
      1 P          16.3450   70.5736   -2.3452 P.3     1  UNL1        0.2189
      2 O          16.4736   71.8874   -1.4239 O.3     1  UNL1       -0.4371
      3 O          17.6167   69.8183   -2.3086 O.2     1  UNL1       -0.5170
      4 O          15.1525   69.6441   -1.7905 O.3     1  UNL1       -0.3112
      5 C          14.7715   69.6078   -0.4139 C.3     1  UNL1        0.1811
      6 C          13.0816   67.2253    1.6847 C.3     1  UNL1        0.2383
      7 C          11.9881   68.2568    1.3073 C.3     1  UNL1        0.1895
      8 O          10.7011   67.6384    1.2514 O.3     1  UNL1       -0.3779
      9 C          12.4433   68.7130   -0.1005 C.3     1  UNL1        0.1713
     10 C          13.9399   68.3505   -0.1482 C.3     1  UNL1        0.1764
     11 O          14.2869   67.7964    1.1309 O.3     1  UNL1       -0.3308
     12 O          11.7242   68.0046   -1.1113 O.3     1  UNL1       -0.3794
     13 H           9.9836   68.2433    1.0197 H       1  UNL1        0.2106
     14 H          10.7687   68.1498   -1.0903 H       1  UNL1        0.2105
     15 N          13.1914   67.0989    3.1397 N.ar    1  UNL1       -0.2551
     16 C          13.0053   65.9002    3.7204 C.ar    1  UNL1        0.3323
     17 N          13.1000   65.7550    5.0554 N.ar    1  UNL1       -0.2743
     18 C          13.3868   66.8173    5.8351 C.ar    1  UNL1        0.2626
     19 C          13.5862   68.0848    5.2370 C.ar    1  UNL1        0.0795
     20 C          13.4894   68.2006    3.8958 C.ar    1  UNL1        0.0869
     21 O          12.7463   64.9336    3.0298 O.2     1  UNL1       -0.2464
     22 O          13.4732   66.6871    7.0434 O.2     1  UNL1       -0.2670
     23 H          12.9616   64.8838    5.4580 H       1  UNL1        0.1734
     24 O          16.0232   71.0104   -3.8614 O.3     1  UNL1       -0.2703
     25 P          16.4346   72.2729   -4.7723 P.3     1  UNL1        0.2208
     26 O          15.1168   72.8846   -5.4674 O.3     1  UNL1       -0.4371
     27 O          17.0698   73.3063   -3.9256 O.2     1  UNL1       -0.5170
     28 O          17.4709   71.7988   -5.9098 O.3     1  UNL1       -0.2865
     29 C          18.1325   70.5328   -5.8814 C.3     1  UNL1        0.2611
     30 C          19.5985   70.7307   -5.4885 C.3     1  UNL1        0.1582
     31 C          20.2902   71.5932   -6.5486 C.3     1  UNL1        0.1625
     32 C          20.1415   70.9199   -7.9157 C.3     1  UNL1        0.1686
     33 C          18.6542   70.7147   -8.2151 C.3     1  UNL1        0.1760
     34 O          21.6773   71.7222   -6.2281 O.3     1  UNL1       -0.3801
     35 O          20.8050   69.6547   -7.8997 O.3     1  UNL1       -0.3794
     36 O          18.0644   69.9311   -7.1758 O.3     1  UNL1       -0.3263
     37 H          22.1781   72.2579   -6.8585 H       1  UNL1        0.2105
     38 H          20.7507   69.1707   -8.7356 H       1  UNL1        0.2105
     39 C          20.5821   71.0097   -3.2766 C.2     1  UNL1        0.2231
     40 C          20.6567   71.6993   -1.9396 C.3     1  UNL1        0.0946
     41 N          19.6702   71.4018   -4.1881 N.am    1  UNL1       -0.2994
     42 O          21.3433   70.1004   -3.5336 O.2     1  UNL1       -0.2751
     43 H          19.0608   72.1281   -3.9826 H       1  UNL1        0.1496
     44 C          18.4989   69.9884   -9.5526 C.3     1  UNL1        0.1693
     45 O          19.3130   70.6261  -10.5390 O.3     1  UNL1       -0.3794
     46 H          19.2640   70.2176  -11.4141 H       1  UNL1        0.2105
@<TRIPOS>BOND
     1    29    30    1
     2    30    41    1
     3    30    31    1
     4    31    34    1
     5    31    32    1
     6    32    35    1
     7    32    33    1
     8    33    36    1
     9    33    44    1
    10    39    40    1
    11    39    42    2
    12    39    41   am
    13    41    43    1
    14    29    28    1
    15    34    37    1
    16    35    38    1
    17    29    36    1
    18    44    45    1
    19    45    46    1
    20    15     6    1
    21    15    16   ar
    22    16    21    2
    23    16    17   ar
    24    17    23    1
    25    17    18   ar
    26    18    19   ar
    27    19    20   ar
    28    15    20   ar
    29    18    22    2
    30     6     7    1
    31     6    11    1
    32     7     9    1
    33     7     8    1
    34     8    13    1
    35     9    10    1
    36     9    12    1
    37    10     5    1
    38    10    11    1
    39    12    14    1
    40     5     4    1
    41     4     1    1
    42     1     2    1
    43     1    24    1
    44     1     3    2
    45    24    25    1
    46    28    25    1
    47    25    26    1
    48    25    27    2
@<TRIPOS>MOLECULE
UD2
 46 48 0 0 0
SMALL
GASTEIGER

@<TRIPOS>ATOM
      1 P          21.7770   71.6003   -2.4865 P.3     1  UNL1        0.2189
      2 O          23.0429   71.1778   -3.3866 O.3     1  UNL1       -0.4371
      3 O          21.7722   73.0678   -2.2987 O.2     1  UNL1       -0.5170
      4 O          20.4189   71.1492   -3.2253 O.3     1  UNL1       -0.3112
      5 C          19.3445   70.4969   -2.5460 C.3     1  UNL1        0.1811
      6 C          17.4059   70.5236   -5.5755 C.3     1  UNL1        0.2383
      7 C          17.2637   69.0782   -5.0345 C.3     1  UNL1        0.1895
      8 O          15.9985   68.5207   -5.3953 O.3     1  UNL1       -0.3779
      9 C          17.3564   69.2931   -3.5040 C.3     1  UNL1        0.1713
     10 C          18.0563   70.6576   -3.3571 C.3     1  UNL1        0.1764
     11 O          18.3667   71.1239   -4.6798 O.3     1  UNL1       -0.3308
     12 O          16.0506   69.3354   -2.9262 O.3     1  UNL1       -0.3794
     13 H          15.8622   67.6170   -5.0800 H       1  UNL1        0.2106
     14 H          15.5421   68.5214   -3.0413 H       1  UNL1        0.2105
     15 N          17.9163   70.5127   -6.9482 N.ar    1  UNL1       -0.2551
     16 C          17.0585   70.3941   -7.9772 C.ar    1  UNL1        0.3323
     17 N          17.4997   70.3810   -9.2490 N.ar    1  UNL1       -0.2743
     18 C          18.8181   70.4893   -9.5112 C.ar    1  UNL1        0.2626
     19 C          19.7322   70.6158   -8.4376 C.ar    1  UNL1        0.0795
     20 C          19.2616   70.6303   -7.1728 C.ar    1  UNL1        0.0869
     21 O          15.8670   70.2959   -7.7557 O.2     1  UNL1       -0.2464
     22 O          19.2187   70.4780  -10.6618 O.2     1  UNL1       -0.2670
     23 H          16.8677   70.2936   -9.9791 H       1  UNL1        0.1734
     24 O          21.8727   70.8756   -1.0516 O.3     1  UNL1       -0.2703
     25 P          21.6561   71.3681    0.4662 P.3     1  UNL1        0.2208
     26 O          20.2294   72.1044    0.5925 O.3     1  UNL1       -0.4371
     27 O          21.6899   70.2003    1.3736 O.2     1  UNL1       -0.5170
     28 O          22.8284   72.3957    0.8693 O.3     1  UNL1       -0.2865
     29 C          22.5857   73.7668    1.1892 C.3     1  UNL1        0.2611
     30 C          23.9055   74.5413    1.1541 C.3     1  UNL1        0.1582
     31 C          24.8485   73.9748    2.2200 C.3     1  UNL1        0.1625
     32 C          24.1639   74.0562    3.5872 C.3     1  UNL1        0.1686
     33 C          22.8339   73.3002    3.5285 C.3     1  UNL1        0.1760
     34 O          26.0558   74.7396    2.2441 O.3     1  UNL1       -0.3801
     35 O          23.9218   75.4245    3.9194 O.3     1  UNL1       -0.3794
     36 O          22.0165   73.8568    2.4970 O.3     1  UNL1       -0.3263
     37 H          26.7008   74.4352    2.8972 H       1  UNL1        0.2105
     38 H          23.4883   75.5515    4.7749 H       1  UNL1        0.2105
     39 C          24.2530   75.3005   -1.1351 C.2     1  UNL1        0.2231
     40 C          24.8849   75.1567   -2.4948 C.3     1  UNL1        0.0946
     41 N          24.5203   74.4006   -0.1683 N.am    1  UNL1       -0.2994
     42 O          23.5027   76.2270   -0.9096 O.2     1  UNL1       -0.2751
     43 H          25.1193   73.6591   -0.3484 H       1  UNL1        0.1496
     44 C          22.1156   73.4272    4.8733 C.3     1  UNL1        0.1693
     45 O          22.5043   72.3479    5.7256 O.3     1  UNL1       -0.3794
     46 H          22.0864   72.3644    6.5974 H       1  UNL1        0.2105
@<TRIPOS>BOND
     1    29    30    1
     2    30    41    1
     3    30    31    1
     4    31    34    1
     5    31    32    1
     6    32    35    1
     7    32    33    1
     8    33    36    1
     9    33    44    1
    10    39    40    1
    11    39    42    2
    12    39    41   am
    13    41    43    1
    14    29    28    1
    15    34    37    1
    16    35    38    1
    17    29    36    1
    18    44    45    1
    19    45    46    1
    20    15     6    1
    21    15    16   ar
    22    16    21    2
    23    16    17   ar
    24    17    23    1
    25    17    18   ar
    26    18    19   ar
    27    19    20   ar
    28    15    20   ar
    29    18    22    2
    30     6     7    1
    31     6    11    1
    32     7     9    1
    33     7     8    1
    34     8    13    1
    35     9    10    1
    36     9    12    1
    37    10     5    1
    38    10    11    1
    39    12    14    1
    40     5     4    1
    41     4     1    1
    42     1     2    1
    43     1    24    1
    44     1     3    2
    45    24    25    1
    46    28    25    1
    47    25    26    1
    48    25    27    2
@<TRIPOS>MOLECULE
UD2
 46 48 0 0 0
SMALL
GASTEIGER

@<TRIPOS>ATOM
      1 P          20.8896   71.2741   -1.2480 P.3     1  UNL1        0.2189
      2 O          20.8020   70.5132    0.1679 O.3     1  UNL1       -0.4371
      3 O          21.9038   70.6157   -2.1006 O.2     1  UNL1       -0.5170
      4 O          19.4552   71.2160   -1.9779 O.3     1  UNL1       -0.3112
      5 C          18.9369   72.2938   -2.7597 C.3     1  UNL1        0.1811
      6 C          17.2707   70.9753   -5.6617 C.3     1  UNL1        0.2383
      7 C          17.6129   69.7276   -4.8084 C.3     1  UNL1        0.1895
      8 O          16.6417   68.6970   -4.9992 O.3     1  UNL1       -0.3779
      9 C          17.5453   70.2904   -3.3675 C.3     1  UNL1        0.1713
     10 C          17.7174   71.8106   -3.5487 C.3     1  UNL1        0.1764
     11 O          17.9142   72.0549   -4.9505 O.3     1  UNL1       -0.3308
     12 O          16.2784   69.9970   -2.7763 O.3     1  UNL1       -0.3794
     13 H          16.8126   67.8953   -4.4866 H       1  UNL1        0.2106
     14 H          16.0920   69.0522   -2.6923 H       1  UNL1        0.2105
     15 N          17.8235   70.8444   -7.0116 N.ar    1  UNL1       -0.2551
     16 C          17.0304   70.4418   -8.0204 C.ar    1  UNL1        0.3323
     17 N          17.5118   70.3126   -9.2710 N.ar    1  UNL1       -0.2743
     18 C          18.8056   70.5889   -9.5321 C.ar    1  UNL1        0.2626
     19 C          19.6516   71.0146   -8.4799 C.ar    1  UNL1        0.0795
     20 C          19.1412   71.1395   -7.2367 C.ar    1  UNL1        0.0869
     21 O          15.8617   70.1894   -7.7996 O.2     1  UNL1       -0.2464
     22 O          19.2424   70.4727  -10.6636 O.2     1  UNL1       -0.2670
     23 H          16.9265   70.0200   -9.9865 H       1  UNL1        0.1734
     24 O          21.3065   72.8107   -1.0069 O.3     1  UNL1       -0.2703
     25 P          22.6205   73.5338   -0.4209 P.3     1  UNL1        0.2208
     26 O          22.1862   74.6202    0.6858 O.3     1  UNL1       -0.4371
     27 O          23.5041   72.5233    0.2009 O.2     1  UNL1       -0.5170
     28 O          23.4062   74.2708   -1.6176 O.3     1  UNL1       -0.2865
     29 C          23.0329   75.5555   -2.1189 C.3     1  UNL1        0.2611
     30 C          23.2673   75.6023   -3.6307 C.3     1  UNL1        0.1582
     31 C          24.7603   75.4087   -3.9133 C.3     1  UNL1        0.1625
     32 C          25.5537   76.4863   -3.1693 C.3     1  UNL1        0.1686
     33 C          25.2311   76.4054   -1.6749 C.3     1  UNL1        0.1760
     34 O          24.9990   75.5242   -5.3180 O.3     1  UNL1       -0.3801
     35 O          25.1917   77.7755   -3.6675 O.3     1  UNL1       -0.3794
     36 O          23.8236   76.5624   -1.4839 O.3     1  UNL1       -0.3263
     37 H          25.9259   75.4113   -5.5696 H       1  UNL1        0.2105
     38 H          25.6566   78.5081   -3.2395 H       1  UNL1        0.2105
     39 C          23.0836   73.3393   -4.5155 C.2     1  UNL1        0.2231
     40 C          22.2992   72.2387   -5.1802 C.3     1  UNL1        0.0946
     41 N          22.5037   74.5323   -4.2776 N.am    1  UNL1       -0.2994
     42 O          24.2385   73.1522   -4.1937 O.2     1  UNL1       -0.2751
     43 H          21.5807   74.6826   -4.5356 H       1  UNL1        0.1496
     44 C          25.9741   77.5174   -0.9320 C.3     1  UNL1        0.1693
     45 O          25.1357   78.6708   -0.8375 O.3     1  UNL1       -0.3794
     46 H          25.5431   79.4173   -0.3773 H       1  UNL1        0.2105
@<TRIPOS>BOND
     1    29    30    1
     2    30    41    1
     3    30    31    1
     4    31    34    1
     5    31    32    1
     6    32    35    1
     7    32    33    1
     8    33    36    1
     9    33    44    1
    10    39    40    1
    11    39    42    2
    12    39    41   am
    13    41    43    1
    14    29    28    1
    15    34    37    1
    16    35    38    1
    17    29    36    1
    18    44    45    1
    19    45    46    1
    20    15     6    1
    21    15    16   ar
    22    16    21    2
    23    16    17   ar
    24    17    23    1
    25    17    18   ar
    26    18    19   ar
    27    19    20   ar
    28    15    20   ar
    29    18    22    2
    30     6     7    1
    31     6    11    1
    32     7     9    1
    33     7     8    1
    34     8    13    1
    35     9    10    1
    36     9    12    1
    37    10     5    1
    38    10    11    1
    39    12    14    1
    40     5     4    1
    41     4     1    1
    42     1     2    1
    43     1    24    1
    44     1     3    2
    45    24    25    1
    46    28    25    1
    47    25    26    1
    48    25    27    2
@<TRIPOS>MOLECULE
UD2
 46 48 0 0 0
SMALL
GASTEIGER

@<TRIPOS>ATOM
      1 P          15.9102   70.5042   -2.7783 P.3     1  UNL1        0.2189
      2 O          15.7781   69.1631   -3.6588 O.3     1  UNL1       -0.4371
      3 O          15.3125   71.6396   -3.5148 O.2     1  UNL1       -0.5170
      4 O          15.1375   70.3057   -1.3792 O.3     1  UNL1       -0.3112
      5 C          14.9057   69.0227   -0.7947 C.3     1  UNL1        0.1811
      6 C          12.1177   67.9411    1.2037 C.3     1  UNL1        0.2383
      7 C          12.4012   69.3881    1.6810 C.3     1  UNL1        0.1895
      8 O          11.1991   70.0264    2.1162 O.3     1  UNL1       -0.3779
      9 C          12.9455   70.0545    0.3937 C.3     1  UNL1        0.1713
     10 C          13.4171   68.8708   -0.4724 C.3     1  UNL1        0.1764
     11 O          13.2015   67.6715    0.2881 O.3     1  UNL1       -0.3308
     12 O          11.9083   70.7786   -0.2701 O.3     1  UNL1       -0.3794
     13 H          11.3249   70.9338    2.4250 H       1  UNL1        0.2106
     14 H          11.5334   71.4993    0.2539 H       1  UNL1        0.2105
     15 N          12.1522   67.0093    2.3332 N.ar    1  UNL1       -0.2551
     16 C          13.3353   66.5789    2.8062 C.ar    1  UNL1        0.3323
     17 N          13.3968   65.7224    3.8429 N.ar    1  UNL1       -0.2743
     18 C          12.2642   65.2819    4.4275 C.ar    1  UNL1        0.2626
     19 C          11.0119   65.7277    3.9405 C.ar    1  UNL1        0.0795
     20 C          10.9801   66.5897    2.9025 C.ar    1  UNL1        0.0869
     21 O          14.3647   66.9679    2.2889 O.2     1  UNL1       -0.2464
     22 O          12.3185   64.5070    5.3661 O.2     1  UNL1       -0.2670
     23 H          14.2581   65.4210    4.1707 H       1  UNL1        0.1734
     24 O          17.4657   70.8082   -2.4930 O.3     1  UNL1       -0.2703
     25 P          18.8445   70.2688   -3.1260 P.3     1  UNL1        0.2208
     26 O          20.0709   70.6742   -2.1641 O.3     1  UNL1       -0.4371
     27 O          18.7855   68.7963   -3.2551 O.2     1  UNL1       -0.5170
     28 O          19.0615   70.9271   -4.5794 O.3     1  UNL1       -0.2865
     29 C          20.1258   70.5489   -5.4543 C.3     1  UNL1        0.2611
     30 C          21.0151   71.7632   -5.7322 C.3     1  UNL1        0.1582
     31 C          20.1882   72.8386   -6.4436 C.3     1  UNL1        0.1625
     32 C          19.5961   72.2471   -7.7257 C.3     1  UNL1        0.1686
     33 C          18.7612   71.0139   -7.3708 C.3     1  UNL1        0.1760
     34 O          21.0288   73.9469   -6.7727 O.3     1  UNL1       -0.3801
     35 O          20.6528   71.8707   -8.6105 O.3     1  UNL1       -0.3794
     36 O          19.5819   70.0665   -6.6846 O.3     1  UNL1       -0.3263
     37 H          20.5696   74.6674   -7.2258 H       1  UNL1        0.2105
     38 H          20.3499   71.4866   -9.4452 H       1  UNL1        0.2105
     39 C          22.8073   72.7024   -4.3744 C.2     1  UNL1        0.2231
     40 C          23.3330   73.2502   -3.0736 C.3     1  UNL1        0.0946
     41 N          21.5258   72.2957   -4.4664 N.am    1  UNL1       -0.2994
     42 O          23.5376   72.6270   -5.3404 O.2     1  UNL1       -0.2751
     43 H          20.9418   72.3548   -3.6941 H       1  UNL1        0.1496
     44 C          18.2148   70.3820   -8.6525 C.3     1  UNL1        0.1693
     45 O          18.2299   71.3487   -9.7049 O.3     1  UNL1       -0.3794
     46 H          17.8961   71.0167  -10.5495 H       1  UNL1        0.2105
@<TRIPOS>BOND
     1    29    30    1
     2    30    41    1
     3    30    31    1
     4    31    34    1
     5    31    32    1
     6    32    35    1
     7    32    33    1
     8    33    36    1
     9    33    44    1
    10    39    40    1
    11    39    42    2
    12    39    41   am
    13    41    43    1
    14    29    28    1
    15    34    37    1
    16    35    38    1
    17    29    36    1
    18    44    45    1
    19    45    46    1
    20    15     6    1
    21    15    16   ar
    22    16    21    2
    23    16    17   ar
    24    17    23    1
    25    17    18   ar
    26    18    19   ar
    27    19    20   ar
    28    15    20   ar
    29    18    22    2
    30     6     7    1
    31     6    11    1
    32     7     9    1
    33     7     8    1
    34     8    13    1
    35     9    10    1
    36     9    12    1
    37    10     5    1
    38    10    11    1
    39    12    14    1
    40     5     4    1
    41     4     1    1
    42     1     2    1
    43     1    24    1
    44     1     3    2
    45    24    25    1
    46    28    25    1
    47    25    26    1
    48    25    27    2
@<TRIPOS>MOLECULE
UD2
 46 48 0 0 0
SMALL
GASTEIGER

@<TRIPOS>ATOM
      1 P          20.5336   71.0738   -2.8874 P.3     1  UNL1        0.2189
      2 O          20.4305   70.5681   -1.3626 O.3     1  UNL1       -0.4371
      3 O          20.7583   69.9142   -3.7783 O.2     1  UNL1       -0.5170
      4 O          19.1632   71.8114   -3.3017 O.3     1  UNL1       -0.3112
      5 C          17.9332   71.6166   -2.6012 C.3     1  UNL1        0.1811
      6 C          16.7500   70.4565   -5.7935 C.3     1  UNL1        0.2383
      7 C          17.1078   69.1637   -5.0173 C.3     1  UNL1        0.1895
      8 O          16.2681   68.0792   -5.4180 O.3     1  UNL1       -0.3779
      9 C          16.8194   69.5735   -3.5523 C.3     1  UNL1        0.1713
     10 C          16.8657   71.1132   -3.5759 C.3     1  UNL1        0.1764
     11 O          17.2003   71.5107   -4.9151 O.3     1  UNL1       -0.3308
     12 O          15.5260   69.1177   -3.1522 O.3     1  UNL1       -0.3794
     13 H          16.4538   67.2479   -4.9607 H       1  UNL1        0.2106
     14 H          15.4220   68.1569   -3.1757 H       1  UNL1        0.2105
     15 N          17.4663   70.5068   -7.0700 N.ar    1  UNL1       -0.2551
     16 C          16.7734   70.5450   -8.2220 C.ar    1  UNL1        0.3323
     17 N          17.4056   70.5914   -9.4096 N.ar    1  UNL1       -0.2743
     18 C          18.7531   70.6021   -9.4611 C.ar    1  UNL1        0.2626
     19 C          19.4952   70.5633   -8.2562 C.ar    1  UNL1        0.0795
     20 C          18.8352   70.5214   -7.0796 C.ar    1  UNL1        0.0869
     21 O          15.5579   70.5361   -8.1906 O.2     1  UNL1       -0.2464
     22 O          19.3266   70.6445  -10.5353 O.2     1  UNL1       -0.2670
     23 H          16.8907   70.6173  -10.2307 H       1  UNL1        0.1734
     24 O          21.7617   72.1058   -3.0290 O.3     1  UNL1       -0.2703
     25 P          23.2738   72.1266   -2.4758 P.3     1  UNL1        0.2208
     26 O          24.0566   70.8228   -3.0058 O.3     1  UNL1       -0.4371
     27 O          23.9600   73.3442   -2.9606 O.2     1  UNL1       -0.5170
     28 O          23.2562   72.1250   -0.8657 O.3     1  UNL1       -0.2865
     29 C          23.3629   73.3167   -0.0848 C.3     1  UNL1        0.2611
     30 C          23.5817   72.9473    1.3843 C.3     1  UNL1        0.1582
     31 C          22.3659   72.1659    1.8919 C.3     1  UNL1        0.1625
     32 C          21.1067   73.0127    1.6877 C.3     1  UNL1        0.1686
     33 C          20.9833   73.3796    0.2064 C.3     1  UNL1        0.1760
     34 O          22.5290   71.8804    3.2830 O.3     1  UNL1       -0.3801
     35 O          21.2009   74.2050    2.4693 O.3     1  UNL1       -0.3794
     36 O          22.1592   74.0768   -0.2096 O.3     1  UNL1       -0.3263
     37 H          21.7944   71.3855    3.6713 H       1  UNL1        0.2105
     38 H          20.4355   74.7911    2.3878 H       1  UNL1        0.2105
     39 C          25.6490   72.3298    2.5169 C.2     1  UNL1        0.2231
     40 C          26.8840   71.4769    2.6434 C.3     1  UNL1        0.0946
     41 N          24.7830   72.1174    1.5065 N.am    1  UNL1       -0.2994
     42 O          25.4332   73.2088    3.3250 O.2     1  UNL1       -0.2751
     43 H          24.9556   71.4154    0.8596 H       1  UNL1        0.1496
     44 C          19.7600   74.2757    0.0034 C.3     1  UNL1        0.1693
     45 O          20.1298   75.6411    0.2068 O.3     1  UNL1       -0.3794
     46 H          19.4017   76.2673    0.0941 H       1  UNL1        0.2105
@<TRIPOS>BOND
     1    29    30    1
     2    30    41    1
     3    30    31    1
     4    31    34    1
     5    31    32    1
     6    32    35    1
     7    32    33    1
     8    33    36    1
     9    33    44    1
    10    39    40    1
    11    39    42    2
    12    39    41   am
    13    41    43    1
    14    29    28    1
    15    34    37    1
    16    35    38    1
    17    29    36    1
    18    44    45    1
    19    45    46    1
    20    15     6    1
    21    15    16   ar
    22    16    21    2
    23    16    17   ar
    24    17    23    1
    25    17    18   ar
    26    18    19   ar
    27    19    20   ar
    28    15    20   ar
    29    18    22    2
    30     6     7    1
    31     6    11    1
    32     7     9    1
    33     7     8    1
    34     8    13    1
    35     9    10    1
    36     9    12    1
    37    10     5    1
    38    10    11    1
    39    12    14    1
    40     5     4    1
    41     4     1    1
    42     1     2    1
    43     1    24    1
    44     1     3    2
    45    24    25    1
    46    28    25    1
    47    25    26    1
    48    25    27    2
@<TRIPOS>MOLECULE
UD2
 46 48 0 0 0
SMALL
GASTEIGER

@<TRIPOS>ATOM
      1 P          21.3486   71.2136   -0.4047 P.3     1  UNL1        0.2189
      2 O          21.3574   70.5549    1.0641 O.3     1  UNL1       -0.4371
      3 O          22.5474   70.7723   -1.1511 O.2     1  UNL1       -0.5170
      4 O          20.0238   70.7484   -1.1934 O.3     1  UNL1       -0.3112
      5 C          20.0364   70.3464   -2.5644 C.3     1  UNL1        0.1811
      6 C          17.7446   70.6362   -5.3213 C.3     1  UNL1        0.2383
      7 C          17.4679   69.2302   -4.7306 C.3     1  UNL1        0.1895
      8 O          16.0997   68.8607   -4.9128 O.3     1  UNL1       -0.3779
      9 C          17.7887   69.4389   -3.2303 C.3     1  UNL1        0.1713
     10 C          18.6903   70.6879   -3.2081 C.3     1  UNL1        0.1764
     11 O          18.8898   71.0958   -4.5710 O.3     1  UNL1       -0.3308
     12 O          16.5888   69.6745   -2.4916 O.3     1  UNL1       -0.3794
     13 H          15.8773   67.9884   -4.5602 H       1  UNL1        0.2106
     14 H          15.9581   68.9424   -2.5205 H       1  UNL1        0.2105
     15 N          18.0654   70.5426   -6.7472 N.ar    1  UNL1       -0.2551
     16 C          17.0782   70.6102   -7.6582 C.ar    1  UNL1        0.3323
     17 N          17.3440   70.5268   -8.9752 N.ar    1  UNL1       -0.2743
     18 C          18.6138   70.3749   -9.4031 C.ar    1  UNL1        0.2626
     19 C          19.6628   70.3033   -8.4552 C.ar    1  UNL1        0.0795
     20 C          19.3679   70.3940   -7.1413 C.ar    1  UNL1        0.0869
     21 O          15.9286   70.7472   -7.2868 O.2     1  UNL1       -0.2464
     22 O          18.8557   70.2997  -10.5949 O.2     1  UNL1       -0.2670
     23 H          16.6202   70.5761   -9.6186 H       1  UNL1        0.1734
     24 O          21.3584   72.8186   -0.2735 O.3     1  UNL1       -0.2703
     25 P          20.5842   74.0072   -1.0356 P.3     1  UNL1        0.2208
     26 O          19.0702   73.5513   -1.3416 O.3     1  UNL1       -0.4371
     27 O          20.5720   75.2153   -0.1819 O.2     1  UNL1       -0.5170
     28 O          21.3366   74.3360   -2.4207 O.3     1  UNL1       -0.2865
     29 C          22.0149   73.3435   -3.1927 C.3     1  UNL1        0.2611
     30 C          23.4345   73.8221   -3.5068 C.3     1  UNL1        0.1582
     31 C          23.3588   75.0973   -4.3520 C.3     1  UNL1        0.1625
     32 C          22.5495   74.8095   -5.6195 C.3     1  UNL1        0.1686
     33 C          21.1637   74.2928   -5.2239 C.3     1  UNL1        0.1760
     34 O          24.6791   75.5104   -4.7118 O.3     1  UNL1       -0.3801
     35 O          23.2227   73.8217   -6.4020 O.3     1  UNL1       -0.3794
     36 O          21.3062   73.1240   -4.4142 O.3     1  UNL1       -0.3263
     37 H          24.7066   76.3144   -5.2485 H       1  UNL1        0.2105
     38 H          22.7648   73.5892   -7.2219 H       1  UNL1        0.2105
     39 C          24.1102   75.3442   -1.7279 C.2     1  UNL1        0.2231
     40 C          24.8385   75.6357   -0.4422 C.3     1  UNL1        0.0946
     41 N          24.1434   74.1049   -2.2562 N.am    1  UNL1       -0.2994
     42 O          23.4930   76.2255   -2.2890 O.2     1  UNL1       -0.2751
     43 H          24.6374   73.4002   -1.8085 H       1  UNL1        0.1496
     44 C          20.3698   73.9463   -6.4849 C.3     1  UNL1        0.1693
     45 O          20.8120   74.7674   -7.5678 O.3     1  UNL1       -0.3794
     46 H          20.3509   74.6019   -8.4014 H       1  UNL1        0.2105
@<TRIPOS>BOND
     1    29    30    1
     2    30    41    1
     3    30    31    1
     4    31    34    1
     5    31    32    1
     6    32    35    1
     7    32    33    1
     8    33    36    1
     9    33    44    1
    10    39    40    1
    11    39    42    2
    12    39    41   am
    13    41    43    1
    14    29    28    1
    15    34    37    1
    16    35    38    1
    17    29    36    1
    18    44    45    1
    19    45    46    1
    20    15     6    1
    21    15    16   ar
    22    16    21    2
    23    16    17   ar
    24    17    23    1
    25    17    18   ar
    26    18    19   ar
    27    19    20   ar
    28    15    20   ar
    29    18    22    2
    30     6     7    1
    31     6    11    1
    32     7     9    1
    33     7     8    1
    34     8    13    1
    35     9    10    1
    36     9    12    1
    37    10     5    1
    38    10    11    1
    39    12    14    1
    40     5     4    1
    41     4     1    1
    42     1     2    1
    43     1    24    1
    44     1     3    2
    45    24    25    1
    46    28    25    1
    47    25    26    1
    48    25    27    2
@<TRIPOS>MOLECULE
UD2
 46 48 0 0 0
SMALL
GASTEIGER

@<TRIPOS>ATOM
      1 P          23.3652   71.8887   -2.7767 P.3     1  UNL1        0.2189
      2 O          24.1056   73.1166   -3.5085 O.3     1  UNL1       -0.4371
      3 O          24.1067   70.6362   -3.0417 O.2     1  UNL1       -0.5170
      4 O          23.3185   72.1593   -1.1898 O.3     1  UNL1       -0.3112
      5 C          24.2153   71.5363   -0.2684 C.3     1  UNL1        0.1811
      6 C          22.8879   71.8691    3.0578 C.3     1  UNL1        0.2383
      7 C          21.7506   72.3712    2.1323 C.3     1  UNL1        0.1895
      8 O          20.4701   72.1082    2.7091 O.3     1  UNL1       -0.3779
      9 C          21.9681   71.5190    0.8580 C.3     1  UNL1        0.1713
     10 C          23.4349   71.0586    0.9587 C.3     1  UNL1        0.1764
     11 O          23.9869   71.6456    2.1479 O.3     1  UNL1       -0.3308
     12 O          21.0891   70.3928    0.8550 O.3     1  UNL1       -0.3794
     13 H          19.7261   72.4046    2.1676 H       1  UNL1        0.2106
     14 H          20.1508   70.6253    0.8520 H       1  UNL1        0.2105
     15 N          23.2367   72.8909    4.0475 N.ar    1  UNL1       -0.2551
     16 C          24.0851   73.8796    3.7138 C.ar    1  UNL1        0.3323
     17 N          24.4233   74.8319    4.6032 N.ar    1  UNL1       -0.2743
     18 C          23.9108   74.8086    5.8504 C.ar    1  UNL1        0.2626
     19 C          23.0157   73.7741    6.2148 C.ar    1  UNL1        0.0795
     20 C          22.6908   72.8349    5.3016 C.ar    1  UNL1        0.0869
     21 O          24.5548   73.9133    2.5928 O.2     1  UNL1       -0.2464
     22 O          24.2158   75.6701    6.6562 O.2     1  UNL1       -0.2670
     23 H          25.0374   75.5370    4.3466 H       1  UNL1        0.1734
     24 O          21.8633   71.7535   -3.3418 O.3     1  UNL1       -0.2703
     25 P          20.4510   72.4086   -2.9305 P.3     1  UNL1        0.2208
     26 O          19.8326   71.6068   -1.6781 O.3     1  UNL1       -0.4371
     27 O          20.6542   73.8254   -2.5567 O.2     1  UNL1       -0.5170
     28 O          19.4361   72.3223   -4.1776 O.3     1  UNL1       -0.2865
     29 C          19.5162   71.3050   -5.1776 C.3     1  UNL1        0.2611
     30 C          19.1895   71.9069   -6.5464 C.3     1  UNL1        0.1582
     31 C          17.7511   72.4335   -6.5329 C.3     1  UNL1        0.1625
     32 C          16.8036   71.2898   -6.1606 C.3     1  UNL1        0.1686
     33 C          17.2224   70.7117   -4.8062 C.3     1  UNL1        0.1760
     34 O          17.4129   72.9310   -7.8295 O.3     1  UNL1       -0.3801
     35 O          16.8720   70.2691   -7.1579 O.3     1  UNL1       -0.3794
     36 O          18.5790   70.2685   -4.8781 O.3     1  UNL1       -0.3263
     37 H          16.5140   73.2818   -7.8936 H       1  UNL1        0.2105
     38 H          16.2962   69.5109   -6.9858 H       1  UNL1        0.2105
     39 C          21.3727   72.7483   -7.2272 C.2     1  UNL1        0.2231
     40 C          22.3216   73.8813   -7.5180 C.3     1  UNL1        0.0946
     41 N          20.1120   73.0095   -6.8289 N.am    1  UNL1       -0.2994
     42 O          21.7431   71.5996   -7.3513 O.2     1  UNL1       -0.2751
     43 H          19.8158   73.9277   -6.7286 H       1  UNL1        0.1496
     44 C          16.3173   69.5294   -4.4547 C.3     1  UNL1        0.1693
     45 O          16.7247   68.3791   -5.1984 O.3     1  UNL1       -0.3794
     46 H          16.1935   67.5898   -5.0255 H       1  UNL1        0.2105
@<TRIPOS>BOND
     1    29    30    1
     2    30    41    1
     3    30    31    1
     4    31    34    1
     5    31    32    1
     6    32    35    1
     7    32    33    1
     8    33    36    1
     9    33    44    1
    10    39    40    1
    11    39    42    2
    12    39    41   am
    13    41    43    1
    14    29    28    1
    15    34    37    1
    16    35    38    1
    17    29    36    1
    18    44    45    1
    19    45    46    1
    20    15     6    1
    21    15    16   ar
    22    16    21    2
    23    16    17   ar
    24    17    23    1
    25    17    18   ar
    26    18    19   ar
    27    19    20   ar
    28    15    20   ar
    29    18    22    2
    30     6     7    1
    31     6    11    1
    32     7     9    1
    33     7     8    1
    34     8    13    1
    35     9    10    1
    36     9    12    1
    37    10     5    1
    38    10    11    1
    39    12    14    1
    40     5     4    1
    41     4     1    1
    42     1     2    1
    43     1    24    1
    44     1     3    2
    45    24    25    1
    46    28    25    1
    47    25    26    1
    48    25    27    2
@<TRIPOS>MOLECULE
UD2
 46 48 0 0 0
SMALL
GASTEIGER

@<TRIPOS>ATOM
      1 P          22.2821   72.7871   -4.1401 P.3     1  UNL1        0.2189
      2 O          21.3992   73.9657   -4.7901 O.3     1  UNL1       -0.4371
      3 O          23.4022   72.4515   -5.0466 O.2     1  UNL1       -0.5170
      4 O          22.8677   73.2754   -2.7215 O.3     1  UNL1       -0.3112
      5 C          22.0584   73.8886   -1.7162 C.3     1  UNL1        0.1811
      6 C          23.1033   72.1994    1.2824 C.3     1  UNL1        0.2383
      7 C          22.3422   73.4521    1.7858 C.3     1  UNL1        0.1895
      8 O          21.7064   73.1933    3.0390 O.3     1  UNL1       -0.3779
      9 C          21.2926   73.6662    0.6678 C.3     1  UNL1        0.1713
     10 C          21.8775   72.9188   -0.5458 C.3     1  UNL1        0.1764
     11 O          23.1523   72.3892   -0.1485 O.3     1  UNL1       -0.3308
     12 O          20.0371   73.0999    1.0470 O.3     1  UNL1       -0.3794
     13 H          21.2177   73.9473    3.3956 H       1  UNL1        0.2106
     14 H          19.6510   73.4935    1.8410 H       1  UNL1        0.2105
     15 N          24.4552   72.1569    1.8441 N.ar    1  UNL1       -0.2551
     16 C          25.0810   70.9749    1.9860 C.ar    1  UNL1        0.3323
     17 N          26.3235   70.9061    2.4994 N.ar    1  UNL1       -0.2743
     18 C          26.9638   72.0302    2.8800 C.ar    1  UNL1        0.2626
     19 C          26.3174   73.2813    2.7354 C.ar    1  UNL1        0.0795
     20 C          25.0733   73.3211    2.2137 C.ar    1  UNL1        0.0869
     21 O          24.5158   69.9532    1.6468 O.2     1  UNL1       -0.2464
     22 O          28.0886   71.9693    3.3445 O.2     1  UNL1       -0.2670
     23 H          26.7598   70.0455    2.5960 H       1  UNL1        0.1734
     24 O          21.3608   71.4848   -3.9200 O.3     1  UNL1       -0.2703
     25 P          19.7862   71.2588   -3.6697 P.3     1  UNL1        0.2208
     26 O          19.5795   70.1336   -2.5362 O.3     1  UNL1       -0.4371
     27 O          19.1704   72.5274   -3.2227 O.2     1  UNL1       -0.5170
     28 O          19.0891   70.7765   -5.0387 O.3     1  UNL1       -0.2865
     29 C          18.2478   71.6229   -5.8242 C.3     1  UNL1        0.2611
     30 C          16.8297   71.0480   -5.8547 C.3     1  UNL1        0.1582
     31 C          16.8605   69.6712   -6.5254 C.3     1  UNL1        0.1625
     32 C          17.4602   69.8114   -7.9272 C.3     1  UNL1        0.1686
     33 C          18.8545   70.4342   -7.8168 C.3     1  UNL1        0.1760
     34 O          15.5297   69.1587   -6.6244 O.3     1  UNL1       -0.3801
     35 O          16.6228   70.6521   -8.7231 O.3     1  UNL1       -0.3794
     36 O          18.7591   71.6979   -7.1566 O.3     1  UNL1       -0.3263
     37 H          15.4742   68.2871   -7.0396 H       1  UNL1        0.2105
     38 H          16.9432   70.7859   -9.6261 H       1  UNL1        0.2105
     39 C          16.4488   69.7412   -3.8336 C.2     1  UNL1        0.2231
     40 C          15.9318   69.6031   -2.4256 C.3     1  UNL1        0.0946
     41 N          16.3263   70.9144   -4.4853 N.am    1  UNL1       -0.2994
     42 O          16.9760   68.7959   -4.3818 O.2     1  UNL1       -0.2751
     43 H          15.9040   71.6702   -4.0477 H       1  UNL1        0.1496
     44 C          19.4365   70.6328   -9.2176 C.3     1  UNL1        0.1693
     45 O          18.4996   71.3469  -10.0266 O.3     1  UNL1       -0.3794
     46 H          18.8028   71.5090  -10.9304 H       1  UNL1        0.2105
@<TRIPOS>BOND
     1    29    30    1
     2    30    41    1
     3    30    31    1
     4    31    34    1
     5    31    32    1
     6    32    35    1
     7    32    33    1
     8    33    36    1
     9    33    44    1
    10    39    40    1
    11    39    42    2
    12    39    41   am
    13    41    43    1
    14    29    28    1
    15    34    37    1
    16    35    38    1
    17    29    36    1
    18    44    45    1
    19    45    46    1
    20    15     6    1
    21    15    16   ar
    22    16    21    2
    23    16    17   ar
    24    17    23    1
    25    17    18   ar
    26    18    19   ar
    27    19    20   ar
    28    15    20   ar
    29    18    22    2
    30     6     7    1
    31     6    11    1
    32     7     9    1
    33     7     8    1
    34     8    13    1
    35     9    10    1
    36     9    12    1
    37    10     5    1
    38    10    11    1
    39    12    14    1
    40     5     4    1
    41     4     1    1
    42     1     2    1
    43     1    24    1
    44     1     3    2
    45    24    25    1
    46    28    25    1
    47    25    26    1
    48    25    27    2
@<TRIPOS>MOLECULE
UD2
 46 48 0 0 0
SMALL
GASTEIGER

@<TRIPOS>ATOM
      1 P          19.2224   73.0190   -1.0153 P.3     1  UNL1        0.2189
      2 O          20.3091   73.9602   -1.7395 O.3     1  UNL1       -0.4371
      3 O          18.5164   73.7931    0.0293 O.2     1  UNL1       -0.5170
      4 O          18.1589   72.4918   -2.1037 O.3     1  UNL1       -0.3112
      5 C          18.1653   71.1571   -2.6134 C.3     1  UNL1        0.1811
      6 C          16.7753   70.5371   -5.8723 C.3     1  UNL1        0.2383
      7 C          16.8138   69.1443   -5.1936 C.3     1  UNL1        0.1895
      8 O          15.7481   68.3175   -5.6652 O.3     1  UNL1       -0.3779
      9 C          16.6146   69.5042   -3.7009 C.3     1  UNL1        0.1713
     10 C          17.0194   70.9881   -3.6141 C.3     1  UNL1        0.1764
     11 O          17.4507   71.3913   -4.9237 O.3     1  UNL1       -0.3308
     12 O          15.2467   69.3356   -3.3253 O.3     1  UNL1       -0.3794
     13 H          15.7300   67.4352   -5.2702 H       1  UNL1        0.2106
     14 H          14.9215   68.4299   -3.4171 H       1  UNL1        0.2105
     15 N          17.4960   70.5099   -7.1470 N.ar    1  UNL1       -0.2551
     16 C          16.8087   70.5518   -8.3022 C.ar    1  UNL1        0.3323
     17 N          17.4450   70.5280   -9.4882 N.ar    1  UNL1       -0.2743
     18 C          18.7912   70.4632   -9.5350 C.ar    1  UNL1        0.2626
     19 C          19.5274   70.4196   -8.3266 C.ar    1  UNL1        0.0795
     20 C          18.8636   70.4491   -7.1519 C.ar    1  UNL1        0.0869
     21 O          15.5945   70.6105   -8.2751 O.2     1  UNL1       -0.2464
     22 O          19.3684   70.4420  -10.6078 O.2     1  UNL1       -0.2670
     23 H          16.9341   70.5576  -10.3118 H       1  UNL1        0.1734
     24 O          19.9668   71.7606   -0.3402 O.3     1  UNL1       -0.2703
     25 P          21.4886   71.4634    0.0944 P.3     1  UNL1        0.2208
     26 O          21.5247   70.1964    1.0880 O.3     1  UNL1       -0.4371
     27 O          22.2969   71.1689   -1.1090 O.2     1  UNL1       -0.5170
     28 O          22.0936   72.7526    0.8457 O.3     1  UNL1       -0.2865
     29 C          22.3601   72.7819    2.2490 C.3     1  UNL1        0.2611
     30 C          22.7050   74.2113    2.6741 C.3     1  UNL1        0.1582
     31 C          23.9787   74.6571    1.9494 C.3     1  UNL1        0.1625
     32 C          25.1053   73.6696    2.2658 C.3     1  UNL1        0.1686
     33 C          24.6679   72.2608    1.8562 C.3     1  UNL1        0.1760
     34 O          24.3494   75.9635    2.3957 O.3     1  UNL1       -0.3801
     35 O          25.3837   73.6955    3.6669 O.3     1  UNL1       -0.3794
     36 O          23.4616   71.9200    2.5424 O.3     1  UNL1       -0.3263
     37 H          25.1491   76.3097    1.9766 H       1  UNL1        0.2105
     38 H          26.0888   73.0918    3.9397 H       1  UNL1        0.2105
     39 C          20.7157   75.4906    3.2605 C.2     1  UNL1        0.2231
     40 C          19.5806   76.4115    2.8970 C.3     1  UNL1        0.0946
     41 N          21.6010   75.1070    2.3197 N.am    1  UNL1       -0.2994
     42 O          20.8334   75.0934    4.4009 O.2     1  UNL1       -0.2751
     43 H          21.5067   75.4235    1.4076 H       1  UNL1        0.1496
     44 C          25.7645   71.2594    2.2239 C.3     1  UNL1        0.1693
     45 O          25.1673   70.0476    2.6899 O.3     1  UNL1       -0.3794
     46 H          25.8049   69.3656    2.9415 H       1  UNL1        0.2105
@<TRIPOS>BOND
     1    29    30    1
     2    30    41    1
     3    30    31    1
     4    31    34    1
     5    31    32    1
     6    32    35    1
     7    32    33    1
     8    33    36    1
     9    33    44    1
    10    39    40    1
    11    39    42    2
    12    39    41   am
    13    41    43    1
    14    29    28    1
    15    34    37    1
    16    35    38    1
    17    29    36    1
    18    44    45    1
    19    45    46    1
    20    15     6    1
    21    15    16   ar
    22    16    21    2
    23    16    17   ar
    24    17    23    1
    25    17    18   ar
    26    18    19   ar
    27    19    20   ar
    28    15    20   ar
    29    18    22    2
    30     6     7    1
    31     6    11    1
    32     7     9    1
    33     7     8    1
    34     8    13    1
    35     9    10    1
    36     9    12    1
    37    10     5    1
    38    10    11    1
    39    12    14    1
    40     5     4    1
    41     4     1    1
    42     1     2    1
    43     1    24    1
    44     1     3    2
    45    24    25    1
    46    28    25    1
    47    25    26    1
    48    25    27    2
@<TRIPOS>MOLECULE
UD2
 46 48 0 0 0
SMALL
GASTEIGER

@<TRIPOS>ATOM
      1 P          20.8213   71.2243   -2.4206 P.3     1  UNL1        0.2189
      2 O          20.7321   70.7574   -0.8826 O.3     1  UNL1       -0.4371
      3 O          21.8847   70.4592   -3.1081 O.2     1  UNL1       -0.5170
      4 O          19.4096   70.9526   -3.1465 O.3     1  UNL1       -0.3112
      5 C          18.1623   70.9649   -2.4497 C.3     1  UNL1        0.1811
      6 C          16.7639   70.5624   -5.7389 C.3     1  UNL1        0.2383
      7 C          16.7798   69.1312   -5.1444 C.3     1  UNL1        0.1895
      8 O          15.7012   68.3511   -5.6638 O.3     1  UNL1       -0.3779
      9 C          16.5859   69.4047   -3.6328 C.3     1  UNL1        0.1713
     10 C          17.0143   70.8742   -3.4580 C.3     1  UNL1        0.1764
     11 O          17.4525   71.3477   -4.7415 O.3     1  UNL1       -0.3308
     12 O          15.2152   69.2359   -3.2671 O.3     1  UNL1       -0.3794
     13 H          15.6689   67.4473   -5.3220 H       1  UNL1        0.2106
     14 H          14.8757   68.3426   -3.4125 H       1  UNL1        0.2105
     15 N          17.4846   70.5996   -7.0133 N.ar    1  UNL1       -0.2551
     16 C          16.7985   70.5456   -8.1688 C.ar    1  UNL1        0.3323
     17 N          17.4348   70.5778   -9.3546 N.ar    1  UNL1       -0.2743
     18 C          18.7796   70.6673   -9.4010 C.ar    1  UNL1        0.2626
     19 C          19.5145   70.7259   -8.1924 C.ar    1  UNL1        0.0795
     20 C          18.8502   70.6961   -7.0179 C.ar    1  UNL1        0.0869
     21 O          15.5855   70.4651   -8.1421 O.2     1  UNL1       -0.2464
     22 O          19.3568   70.6969  -10.4736 O.2     1  UNL1       -0.2670
     23 H          16.9249   70.5367  -10.1783 H       1  UNL1        0.1734
     24 O          21.1634   72.7966   -2.4854 O.3     1  UNL1       -0.2703
     25 P          22.5327   73.6440   -2.4759 P.3     1  UNL1        0.2208
     26 O          23.7560   72.6910   -2.9108 O.3     1  UNL1       -0.4371
     27 O          22.4227   74.7703   -3.4287 O.2     1  UNL1       -0.5170
     28 O          22.7986   74.2173   -0.9950 O.3     1  UNL1       -0.2865
     29 C          24.0648   74.1238   -0.3397 C.3     1  UNL1        0.2611
     30 C          23.8798   74.3427    1.1638 C.3     1  UNL1        0.1582
     31 C          23.3358   75.7547    1.4023 C.3     1  UNL1        0.1625
     32 C          24.2971   76.7720    0.7815 C.3     1  UNL1        0.1686
     33 C          24.4660   76.4594   -0.7077 C.3     1  UNL1        0.1760
     34 O          23.2293   75.9940    2.8075 O.3     1  UNL1       -0.3801
     35 O          25.5655   76.6906    1.4340 O.3     1  UNL1       -0.3794
     36 O          24.9451   75.1218   -0.8606 O.3     1  UNL1       -0.3263
     37 H          22.8897   76.8711    3.0320 H       1  UNL1        0.2105
     38 H          26.2258   77.3084    1.0902 H       1  UNL1        0.2105
     39 C          21.6175   73.6523    1.7495 C.2     1  UNL1        0.2231
     40 C          20.6414   72.6398    2.2887 C.3     1  UNL1        0.0946
     41 N          22.9310   73.3573    1.6886 N.am    1  UNL1       -0.2994
     42 O          21.2214   74.7345    1.3697 O.2     1  UNL1       -0.2751
     43 H          23.2482   72.4927    1.9931 H       1  UNL1        0.1496
     44 C          25.4713   77.4350   -1.3225 C.3     1  UNL1        0.1693
     45 O          25.8506   76.9739   -2.6210 O.3     1  UNL1       -0.3794
     46 H          26.4878   77.5452   -3.0712 H       1  UNL1        0.2105
@<TRIPOS>BOND
     1    29    30    1
     2    30    41    1
     3    30    31    1
     4    31    34    1
     5    31    32    1
     6    32    35    1
     7    32    33    1
     8    33    36    1
     9    33    44    1
    10    39    40    1
    11    39    42    2
    12    39    41   am
    13    41    43    1
    14    29    28    1
    15    34    37    1
    16    35    38    1
    17    29    36    1
    18    44    45    1
    19    45    46    1
    20    15     6    1
    21    15    16   ar
    22    16    21    2
    23    16    17   ar
    24    17    23    1
    25    17    18   ar
    26    18    19   ar
    27    19    20   ar
    28    15    20   ar
    29    18    22    2
    30     6     7    1
    31     6    11    1
    32     7     9    1
    33     7     8    1
    34     8    13    1
    35     9    10    1
    36     9    12    1
    37    10     5    1
    38    10    11    1
    39    12    14    1
    40     5     4    1
    41     4     1    1
    42     1     2    1
    43     1    24    1
    44     1     3    2
    45    24    25    1
    46    28    25    1
    47    25    26    1
    48    25    27    2
@<TRIPOS>MOLECULE
UD2
 46 48 0 0 0
SMALL
GASTEIGER

@<TRIPOS>ATOM
      1 P          20.3835   71.0159   -2.7967 P.3     1  UNL1        0.2189
      2 O          20.1304   70.4915   -1.2960 O.3     1  UNL1       -0.4371
      3 O          20.5743   69.8587   -3.6987 O.2     1  UNL1       -0.5170
      4 O          19.1120   71.8744   -3.2867 O.3     1  UNL1       -0.3112
      5 C          17.8370   71.8101   -2.6450 C.3     1  UNL1        0.1811
      6 C          16.7486   70.5071   -5.8158 C.3     1  UNL1        0.2383
      7 C          17.1449   69.2538   -4.9947 C.3     1  UNL1        0.1895
      8 O          16.3544   68.1252   -5.3732 O.3     1  UNL1       -0.3779
      9 C          16.8184   69.6965   -3.5474 C.3     1  UNL1        0.1713
     10 C          16.8049   71.2354   -3.6183 C.3     1  UNL1        0.1764
     11 O          17.1441   71.6046   -4.9645 O.3     1  UNL1       -0.3308
     12 O          15.5379   69.2023   -3.1514 O.3     1  UNL1       -0.3794
     13 H          16.5654   67.3163   -4.8877 H       1  UNL1        0.2106
     14 H          15.4719   68.2379   -3.1464 H       1  UNL1        0.2105
     15 N          17.4817   70.5466   -7.0831 N.ar    1  UNL1       -0.2551
     16 C          16.8041   70.5710   -8.2445 C.ar    1  UNL1        0.3323
     17 N          17.4519   70.6072   -9.4240 N.ar    1  UNL1       -0.2743
     18 C          18.8000   70.6215   -9.4578 C.ar    1  UNL1        0.2626
     19 C          19.5260   70.5972   -8.2427 C.ar    1  UNL1        0.0795
     20 C          18.8506   70.5653   -7.0747 C.ar    1  UNL1        0.0869
     21 O          15.5883   70.5587   -8.2292 O.2     1  UNL1       -0.2464
     22 O          19.3875   70.6547  -10.5246 O.2     1  UNL1       -0.2670
     23 H          16.9479   70.6232  -10.2522 H       1  UNL1        0.1734
     24 O          21.6999   71.9430   -2.8268 O.3     1  UNL1       -0.2703
     25 P          22.2229   73.1712   -1.9263 P.3     1  UNL1        0.2208
     26 O          21.0310   73.6812   -0.9707 O.3     1  UNL1       -0.4371
     27 O          23.3629   72.7242   -1.0961 O.2     1  UNL1       -0.5170
     28 O          22.6960   74.3757   -2.8844 O.3     1  UNL1       -0.2865
     29 C          23.7996   74.2665   -3.7851 C.3     1  UNL1        0.2611
     30 C          24.2170   75.6624   -4.2539 C.3     1  UNL1        0.1582
     31 C          23.0546   76.3036   -5.0182 C.3     1  UNL1        0.1625
     32 C          22.6606   75.3933   -6.1846 C.3     1  UNL1        0.1686
     33 C          22.3031   74.0074   -5.6411 C.3     1  UNL1        0.1760
     34 O          23.4605   77.5779   -5.5229 O.3     1  UNL1       -0.3801
     35 O          23.7562   75.2819   -7.0948 O.3     1  UNL1       -0.3794
     36 O          23.4156   73.4806   -4.9152 O.3     1  UNL1       -0.3263
     37 H          22.7716   78.0419   -6.0182 H       1  UNL1        0.2105
     38 H          23.5770   74.7176   -7.8599 H       1  UNL1        0.2105
     39 C          25.8429   76.7646   -2.8119 C.2     1  UNL1        0.2231
     40 C          26.1900   77.6140   -1.6175 C.3     1  UNL1        0.0946
     41 N          24.5539   76.4885   -3.0918 N.am    1  UNL1       -0.2994
     42 O          26.7240   76.3284   -3.5230 O.2     1  UNL1       -0.2751
     43 H          23.8491   76.8363   -2.5230 H       1  UNL1        0.1496
     44 C          21.9658   73.0745   -6.8058 C.3     1  UNL1        0.1693
     45 O          23.1149   72.2930   -7.1393 O.3     1  UNL1       -0.3794
     46 H          22.9736   71.6774   -7.8715 H       1  UNL1        0.2105
@<TRIPOS>BOND
     1    29    30    1
     2    30    41    1
     3    30    31    1
     4    31    34    1
     5    31    32    1
     6    32    35    1
     7    32    33    1
     8    33    36    1
     9    33    44    1
    10    39    40    1
    11    39    42    2
    12    39    41   am
    13    41    43    1
    14    29    28    1
    15    34    37    1
    16    35    38    1
    17    29    36    1
    18    44    45    1
    19    45    46    1
    20    15     6    1
    21    15    16   ar
    22    16    21    2
    23    16    17   ar
    24    17    23    1
    25    17    18   ar
    26    18    19   ar
    27    19    20   ar
    28    15    20   ar
    29    18    22    2
    30     6     7    1
    31     6    11    1
    32     7     9    1
    33     7     8    1
    34     8    13    1
    35     9    10    1
    36     9    12    1
    37    10     5    1
    38    10    11    1
    39    12    14    1
    40     5     4    1
    41     4     1    1
    42     1     2    1
    43     1    24    1
    44     1     3    2
    45    24    25    1
    46    28    25    1
    47    25    26    1
    48    25    27    2
@<TRIPOS>MOLECULE
UD2
 46 48 0 0 0
SMALL
GASTEIGER

@<TRIPOS>ATOM
      1 P          15.7386   70.8867   -2.4632 P.3     1  UNL1        0.2189
      2 O          14.5945   72.0191   -2.4534 O.3     1  UNL1       -0.4371
      3 O          16.9630   71.4160   -1.8232 O.2     1  UNL1       -0.5170
      4 O          15.2228   69.5960   -1.6498 O.3     1  UNL1       -0.3112
      5 C          14.3419   69.6850   -0.5284 C.3     1  UNL1        0.1811
      6 C          12.5976   67.0945    1.2559 C.3     1  UNL1        0.2383
      7 C          11.5047   68.1415    0.9219 C.3     1  UNL1        0.1895
      8 O          10.2334   67.5133    0.7459 O.3     1  UNL1       -0.3779
      9 C          12.0182   68.7329   -0.4138 C.3     1  UNL1        0.1713
     10 C          13.5218   68.3971   -0.4209 C.3     1  UNL1        0.1764
     11 O          13.8173   67.7312    0.8171 O.3     1  UNL1       -0.3308
     12 O          11.3612   68.1116   -1.5198 O.3     1  UNL1       -0.3794
     13 H           9.5168   68.1272    0.5358 H       1  UNL1        0.2106
     14 H          10.4033   68.2411   -1.5325 H       1  UNL1        0.2105
     15 N          12.6401   66.8350    2.6967 N.ar    1  UNL1       -0.2551
     16 C          12.6120   67.8654    3.5605 C.ar    1  UNL1        0.3323
     17 N          12.6500   67.6562    4.8898 N.ar    1  UNL1       -0.2743
     18 C          12.7156   66.4008    5.3778 C.ar    1  UNL1        0.2626
     19 C          12.7448   65.3067    4.4799 C.ar    1  UNL1        0.0795
     20 C          12.7012   65.5455    3.1522 C.ar    1  UNL1        0.0869
     21 O          12.5527   69.0027    3.1347 O.2     1  UNL1       -0.2464
     22 O          12.7496   66.2101    6.5807 O.2     1  UNL1       -0.2670
     23 H          12.6301   68.4106    5.4987 H       1  UNL1        0.1734
     24 O          16.0656   70.4669   -3.9831 O.3     1  UNL1       -0.2703
     25 P          17.0675   69.4021   -4.6579 P.3     1  UNL1        0.2208
     26 O          17.7666   68.5194   -3.5064 O.3     1  UNL1       -0.4371
     27 O          16.3070   68.5151   -5.5652 O.2     1  UNL1       -0.5170
     28 O          18.1981   70.1852   -5.4952 O.3     1  UNL1       -0.2865
     29 C          18.5106   71.5629   -5.2818 C.3     1  UNL1        0.2611
     30 C          19.5173   72.0281   -6.3367 C.3     1  UNL1        0.1582
     31 C          20.8139   71.2276   -6.1807 C.3     1  UNL1        0.1625
     32 C          21.3430   71.4059   -4.7550 C.3     1  UNL1        0.1686
     33 C          20.2656   70.9645   -3.7608 C.3     1  UNL1        0.1760
     34 O          21.7853   71.7059   -7.1139 O.3     1  UNL1       -0.3801
     35 O          21.6640   72.7803   -4.5331 O.3     1  UNL1       -0.3794
     36 O          19.0767   71.7264   -3.9798 O.3     1  UNL1       -0.3263
     37 H          22.6329   71.2422   -7.0711 H       1  UNL1        0.2105
     38 H          22.0054   72.9671   -3.6473 H       1  UNL1        0.2105
     39 C          19.2556   70.6749   -8.3462 C.2     1  UNL1        0.2231
     40 C          18.6854   70.4453   -9.7212 C.3     1  UNL1        0.0946
     41 N          18.9624   71.8057   -7.6743 N.am    1  UNL1       -0.2994
     42 O          19.9796   69.8415   -7.8426 O.2     1  UNL1       -0.2751
     43 H          18.3845   72.4727   -8.0769 H       1  UNL1        0.1496
     44 C          20.7640   71.1956   -2.3330 C.3     1  UNL1        0.1693
     45 O          19.8412   70.6193   -1.4064 O.3     1  UNL1       -0.3794
     46 H          20.0940   70.7281   -0.4794 H       1  UNL1        0.2105
@<TRIPOS>BOND
     1    29    30    1
     2    30    41    1
     3    30    31    1
     4    31    34    1
     5    31    32    1
     6    32    35    1
     7    32    33    1
     8    33    36    1
     9    33    44    1
    10    39    40    1
    11    39    42    2
    12    39    41   am
    13    41    43    1
    14    29    28    1
    15    34    37    1
    16    35    38    1
    17    29    36    1
    18    44    45    1
    19    45    46    1
    20    15     6    1
    21    15    16   ar
    22    16    21    2
    23    16    17   ar
    24    17    23    1
    25    17    18   ar
    26    18    19   ar
    27    19    20   ar
    28    15    20   ar
    29    18    22    2
    30     6     7    1
    31     6    11    1
    32     7     9    1
    33     7     8    1
    34     8    13    1
    35     9    10    1
    36     9    12    1
    37    10     5    1
    38    10    11    1
    39    12    14    1
    40     5     4    1
    41     4     1    1
    42     1     2    1
    43     1    24    1
    44     1     3    2
    45    24    25    1
    46    28    25    1
    47    25    26    1
    48    25    27    2
@<TRIPOS>MOLECULE
UD2
 46 48 0 0 0
SMALL
GASTEIGER

@<TRIPOS>ATOM
      1 P          16.0870   71.1786   -3.1444 P.3     1  UNL1        0.2189
      2 O          15.9420   69.8504   -4.0422 O.3     1  UNL1       -0.4371
      3 O          15.2351   72.2499   -3.7060 O.2     1  UNL1       -0.5170
      4 O          15.6231   70.8595   -1.6355 O.3     1  UNL1       -0.3112
      5 C          15.5787   69.5357   -1.0997 C.3     1  UNL1        0.1811
      6 C          12.8503   68.1279    0.7740 C.3     1  UNL1        0.2383
      7 C          12.7981   69.6444    1.0894 C.3     1  UNL1        0.1895
      8 O          11.4562   70.0678    1.3380 O.3     1  UNL1       -0.3779
      9 C          13.3405   70.2679   -0.2200 C.3     1  UNL1        0.1713
     10 C          14.1207   69.1199   -0.8886 C.3     1  UNL1        0.1764
     11 O          14.0580   67.9887   -0.0055 O.3     1  UNL1       -0.3308
     12 O          12.2616   70.6925   -1.0546 O.3     1  UNL1       -0.3794
     13 H          11.3717   71.0093    1.5407 H       1  UNL1        0.2106
     14 H          11.7013   71.3733   -0.6584 H       1  UNL1        0.2105
     15 N          12.9404   67.3468    2.0096 N.ar    1  UNL1       -0.2551
     16 C          12.5766   66.0520    2.0076 C.ar    1  UNL1        0.3323
     17 N          12.6489   65.3103    3.1287 N.ar    1  UNL1       -0.2743
     18 C          13.0922   65.8589    4.2780 C.ar    1  UNL1        0.2626
     19 C          13.4794   67.2205    4.2943 C.ar    1  UNL1        0.0795
     20 C          13.4006   67.9393    3.1547 C.ar    1  UNL1        0.0869
     21 O          12.1752   65.5441    0.9784 O.2     1  UNL1       -0.2464
     22 O          13.1585   65.1886    5.2933 O.2     1  UNL1       -0.2670
     23 H          12.3815   64.3785    3.1100 H       1  UNL1        0.1734
     24 O          17.6237   71.6602   -3.1421 O.3     1  UNL1       -0.2703
     25 P          19.0308   70.9093   -3.3639 P.3     1  UNL1        0.2208
     26 O          20.0378   71.2930   -2.1670 O.3     1  UNL1       -0.4371
     27 O          18.8131   69.4461   -3.3746 O.2     1  UNL1       -0.5170
     28 O          19.6680   71.3679   -4.7697 O.3     1  UNL1       -0.2865
     29 C          19.8616   72.7377   -5.1267 C.3     1  UNL1        0.2611
     30 C          20.1681   72.8376   -6.6229 C.3     1  UNL1        0.1582
     31 C          21.4724   72.0910   -6.9190 C.3     1  UNL1        0.1625
     32 C          22.5922   72.6797   -6.0565 C.3     1  UNL1        0.1686
     33 C          22.1921   72.5857   -4.5817 C.3     1  UNL1        0.1760
     34 O          21.8050   72.2411   -8.3011 O.3     1  UNL1       -0.3801
     35 O          22.7978   74.0486   -6.4099 O.3     1  UNL1       -0.3794
     36 O          20.9560   73.2739   -4.3804 O.3     1  UNL1       -0.3263
     37 H          22.6214   71.7919   -8.5598 H       1  UNL1        0.2105
     38 H          23.4946   74.4865   -5.9012 H       1  UNL1        0.2105
     39 C          19.1488   70.9434   -7.7678 C.2     1  UNL1        0.2231
     40 C          18.0243   70.3222   -8.5541 C.3     1  UNL1        0.0946
     41 N          19.0740   72.2342   -7.3879 N.am    1  UNL1       -0.2994
     42 O          20.1231   70.2816   -7.4760 O.2     1  UNL1       -0.2751
     43 H          18.2957   72.7639   -7.6219 H       1  UNL1        0.1496
     44 C          23.2794   73.2260   -3.7168 C.3     1  UNL1        0.1693
     45 O          24.5657   72.8899   -4.2412 O.3     1  UNL1       -0.3794
     46 H          25.3046   73.2629   -3.7412 H       1  UNL1        0.2105
@<TRIPOS>BOND
     1    29    30    1
     2    30    41    1
     3    30    31    1
     4    31    34    1
     5    31    32    1
     6    32    35    1
     7    32    33    1
     8    33    36    1
     9    33    44    1
    10    39    40    1
    11    39    42    2
    12    39    41   am
    13    41    43    1
    14    29    28    1
    15    34    37    1
    16    35    38    1
    17    29    36    1
    18    44    45    1
    19    45    46    1
    20    15     6    1
    21    15    16   ar
    22    16    21    2
    23    16    17   ar
    24    17    23    1
    25    17    18   ar
    26    18    19   ar
    27    19    20   ar
    28    15    20   ar
    29    18    22    2
    30     6     7    1
    31     6    11    1
    32     7     9    1
    33     7     8    1
    34     8    13    1
    35     9    10    1
    36     9    12    1
    37    10     5    1
    38    10    11    1
    39    12    14    1
    40     5     4    1
    41     4     1    1
    42     1     2    1
    43     1    24    1
    44     1     3    2
    45    24    25    1
    46    28    25    1
    47    25    26    1
    48    25    27    2
@<TRIPOS>MOLECULE
UD2
 46 48 0 0 0
SMALL
GASTEIGER

@<TRIPOS>ATOM
      1 P          21.1685   71.2233   -0.0069 P.3     1  UNL1        0.2189
      2 O          22.6109   71.7993   -0.4301 O.3     1  UNL1       -0.4371
      3 O          21.3447   70.0692    0.9019 O.2     1  UNL1       -0.5170
      4 O          20.3302   72.3751    0.7444 O.3     1  UNL1       -0.3112
      5 C          20.9481   73.4190    1.4992 C.3     1  UNL1        0.1811
      6 C          22.1762   73.5319    4.8780 C.3     1  UNL1        0.2383
      7 C          21.1072   74.6523    4.8142 C.3     1  UNL1        0.1895
      8 O          20.4743   74.8262    6.0835 O.3     1  UNL1       -0.3779
      9 C          20.1094   74.0909    3.7718 C.3     1  UNL1        0.1713
     10 C          20.9314   73.0521    2.9852 C.3     1  UNL1        0.1764
     11 O          22.2682   73.0779    3.5101 O.3     1  UNL1       -0.3308
     12 O          19.0047   73.4641    4.4257 O.3     1  UNL1       -0.3794
     13 H          19.7978   75.5168    6.0946 H       1  UNL1        0.2106
     14 H          18.4864   74.0605    4.9827 H       1  UNL1        0.2105
     15 N          23.4608   74.0699    5.3310 N.ar    1  UNL1       -0.2551
     16 C          23.7373   74.1164    6.6464 C.ar    1  UNL1        0.3323
     17 N          24.9098   74.6059    7.0910 N.ar    1  UNL1       -0.2743
     18 C          25.8316   75.0584    6.2169 C.ar    1  UNL1        0.2626
     19 C          25.5543   75.0145    4.8293 C.ar    1  UNL1        0.0795
     20 C          24.3723   74.5147    4.4115 C.ar    1  UNL1        0.0869
     21 O          22.9156   73.7116    7.4459 O.2     1  UNL1       -0.2464
     22 O          26.8935   75.5013    6.6180 O.2     1  UNL1       -0.2670
     23 H          25.0926   74.6332    8.0428 H       1  UNL1        0.1734
     24 O          20.3707   70.7526   -1.3242 O.3     1  UNL1       -0.2703
     25 P          20.3820   71.2207   -2.8649 P.3     1  UNL1        0.2208
     26 O          20.5194   72.8237   -2.9371 O.3     1  UNL1       -0.4371
     27 O          21.5274   70.5961   -3.5622 O.2     1  UNL1       -0.5170
     28 O          19.0092   70.7668   -3.5736 O.3     1  UNL1       -0.2865
     29 C          18.2806   71.6080   -4.4696 C.3     1  UNL1        0.2611
     30 C          16.9222   70.9729   -4.7763 C.3     1  UNL1        0.1582
     31 C          17.1432   69.6285   -5.4765 C.3     1  UNL1        0.1625
     32 C          17.9770   69.8545   -6.7406 C.3     1  UNL1        0.1686
     33 C          19.2951   70.5328   -6.3581 C.3     1  UNL1        0.1760
     34 O          15.8798   69.0625   -5.8325 O.3     1  UNL1       -0.3801
     35 O          17.2543   70.6904   -7.6464 O.3     1  UNL1       -0.3794
     36 O          19.0183   71.7620   -5.6839 O.3     1  UNL1       -0.3263
     37 H          15.9443   68.2078   -6.2801 H       1  UNL1        0.2105
     38 H          17.7244   70.8765   -8.4712 H       1  UNL1        0.2105
     39 C          16.2673   69.5723   -2.8930 C.2     1  UNL1        0.2231
     40 C          15.5136   69.3518   -1.6077 C.3     1  UNL1        0.0946
     41 N          16.1885   70.7592   -3.5263 N.am    1  UNL1       -0.2994
     42 O          16.9458   68.6809   -3.3590 O.2     1  UNL1       -0.2751
     43 H          15.6454   71.4718   -3.1546 H       1  UNL1        0.1496
     44 C          20.1083   70.8162   -7.6225 C.3     1  UNL1        0.1693
     45 O          21.0787   69.7834   -7.8071 O.3     1  UNL1       -0.3794
     46 H          21.6318   69.8983   -8.5919 H       1  UNL1        0.2105
@<TRIPOS>BOND
     1    29    30    1
     2    30    41    1
     3    30    31    1
     4    31    34    1
     5    31    32    1
     6    32    35    1
     7    32    33    1
     8    33    36    1
     9    33    44    1
    10    39    40    1
    11    39    42    2
    12    39    41   am
    13    41    43    1
    14    29    28    1
    15    34    37    1
    16    35    38    1
    17    29    36    1
    18    44    45    1
    19    45    46    1
    20    15     6    1
    21    15    16   ar
    22    16    21    2
    23    16    17   ar
    24    17    23    1
    25    17    18   ar
    26    18    19   ar
    27    19    20   ar
    28    15    20   ar
    29    18    22    2
    30     6     7    1
    31     6    11    1
    32     7     9    1
    33     7     8    1
    34     8    13    1
    35     9    10    1
    36     9    12    1
    37    10     5    1
    38    10    11    1
    39    12    14    1
    40     5     4    1
    41     4     1    1
    42     1     2    1
    43     1    24    1
    44     1     3    2
    45    24    25    1
    46    28    25    1
    47    25    26    1
    48    25    27    2
@<TRIPOS>MOLECULE
UD2
 46 48 0 0 0
SMALL
GASTEIGER

@<TRIPOS>ATOM
      1 P          22.8222   72.5191   -3.6334 P.3     1  UNL1        0.2189
      2 O          22.3782   74.0557   -3.4515 O.3     1  UNL1       -0.4371
      3 O          24.0482   72.4536   -4.4590 O.2     1  UNL1       -0.5170
      4 O          23.1127   71.8700   -2.1885 O.3     1  UNL1       -0.3112
      5 C          23.0653   72.6223   -0.9748 C.3     1  UNL1        0.1811
      6 C          24.6832   71.7931    2.1287 C.3     1  UNL1        0.2383
      7 C          23.3079   72.3712    2.5485 C.3     1  UNL1        0.1895
      8 O          22.8526   71.7731    3.7637 O.3     1  UNL1       -0.3779
      9 C          22.4056   71.9607    1.3590 C.3     1  UNL1        0.1713
     10 C          23.3954   71.7061    0.2061 C.3     1  UNL1        0.1764
     11 O          24.7120   72.0000    0.6997 O.3     1  UNL1       -0.3308
     12 O          21.6819   70.7690    1.6699 O.3     1  UNL1       -0.3794
     13 H          21.9962   72.1026    4.0679 H       1  UNL1        0.2106
     14 H          21.0864   70.8556    2.4265 H       1  UNL1        0.2105
     15 N          25.7714   72.5271    2.7786 N.ar    1  UNL1       -0.2551
     16 C          26.9823   71.9545    2.8994 C.ar    1  UNL1        0.3323
     17 N          28.0005   72.6057    3.4923 N.ar    1  UNL1       -0.2743
     18 C          27.8196   73.8516    3.9756 C.ar    1  UNL1        0.2626
     19 C          26.5504   74.4668    3.8542 C.ar    1  UNL1        0.0795
     20 C          25.5487   73.7923    3.2514 C.ar    1  UNL1        0.0869
     21 O          27.1598   70.8316    2.4681 O.2     1  UNL1       -0.2464
     22 O          28.7404   74.4422    4.5121 O.2     1  UNL1       -0.2670
     23 H          28.8668   72.1777    3.5723 H       1  UNL1        0.1734
     24 O          21.6407   71.7013   -4.3606 O.3     1  UNL1       -0.2703
     25 P          20.1724   71.2193   -3.9084 P.3     1  UNL1        0.2208
     26 O          20.3037   69.9511   -2.9244 O.3     1  UNL1       -0.4371
     27 O          19.4867   72.3228   -3.2011 O.2     1  UNL1       -0.5170
     28 O          19.3198   70.8035   -5.2095 O.3     1  UNL1       -0.2865
     29 C          18.3350   71.6541   -5.7994 C.3     1  UNL1        0.2611
     30 C          16.9519   71.0163   -5.6483 C.3     1  UNL1        0.1582
     31 C          16.9283   69.6839   -6.4036 C.3     1  UNL1        0.1625
     32 C          17.2954   69.9335   -7.8690 C.3     1  UNL1        0.1686
     33 C          18.6657   70.6131   -7.9345 C.3     1  UNL1        0.1760
     34 O          15.6184   69.1164   -6.3294 O.3     1  UNL1       -0.3801
     35 O          16.3130   70.7790   -8.4701 O.3     1  UNL1       -0.3794
     36 O          18.6280   71.8304   -7.1870 O.3     1  UNL1       -0.3263
     37 H          15.5309   68.2689   -6.7868 H       1  UNL1        0.2105
     38 H          16.4828   70.9801   -9.4011 H       1  UNL1        0.2105
     39 C          16.8964   69.5635   -3.6928 C.2     1  UNL1        0.2231
     40 C          16.6118   69.3195   -2.2340 C.3     1  UNL1        0.0946
     41 N          16.6746   70.7797   -4.2293 N.am    1  UNL1       -0.2994
     42 O          17.3255   68.6648   -4.3858 O.2     1  UNL1       -0.2751
     43 H          16.3305   71.4982   -3.6757 H       1  UNL1        0.1496
     44 C          19.0132   70.9201   -9.3924 C.3     1  UNL1        0.1693
     45 O          18.2349   70.0868  -10.2540 O.3     1  UNL1       -0.3794
     46 H          18.4037   70.2275  -11.1957 H       1  UNL1        0.2105
@<TRIPOS>BOND
     1    29    30    1
     2    30    41    1
     3    30    31    1
     4    31    34    1
     5    31    32    1
     6    32    35    1
     7    32    33    1
     8    33    36    1
     9    33    44    1
    10    39    40    1
    11    39    42    2
    12    39    41   am
    13    41    43    1
    14    29    28    1
    15    34    37    1
    16    35    38    1
    17    29    36    1
    18    44    45    1
    19    45    46    1
    20    15     6    1
    21    15    16   ar
    22    16    21    2
    23    16    17   ar
    24    17    23    1
    25    17    18   ar
    26    18    19   ar
    27    19    20   ar
    28    15    20   ar
    29    18    22    2
    30     6     7    1
    31     6    11    1
    32     7     9    1
    33     7     8    1
    34     8    13    1
    35     9    10    1
    36     9    12    1
    37    10     5    1
    38    10    11    1
    39    12    14    1
    40     5     4    1
    41     4     1    1
    42     1     2    1
    43     1    24    1
    44     1     3    2
    45    24    25    1
    46    28    25    1
    47    25    26    1
    48    25    27    2
@<TRIPOS>MOLECULE
UD2
 46 48 0 0 0
SMALL
GASTEIGER

@<TRIPOS>ATOM
      1 P          14.3438   72.0901   -2.1264 P.3     1  UNL1        0.2189
      2 O          13.3503   73.2507   -2.6336 O.3     1  UNL1       -0.4371
      3 O          15.2792   72.6443   -1.1229 O.2     1  UNL1       -0.5170
      4 O          13.4848   70.9016   -1.4607 O.3     1  UNL1       -0.3112
      5 C          14.0012   70.0485   -0.4374 C.3     1  UNL1        0.1811
      6 C          12.4807   67.0772    0.9029 C.3     1  UNL1        0.2383
      7 C          11.2905   68.0252    0.6085 C.3     1  UNL1        0.1895
      8 O          10.1190   67.2820    0.2663 O.3     1  UNL1       -0.3779
      9 C          11.8090   68.8301   -0.6084 C.3     1  UNL1        0.1713
     10 C          13.3399   68.6718   -0.5398 C.3     1  UNL1        0.1764
     11 O          13.6380   67.8980    0.6332 O.3     1  UNL1       -0.3308
     12 O          11.3025   68.2775   -1.8245 O.3     1  UNL1       -0.3794
     13 H           9.3469   67.8310    0.0739 H       1  UNL1        0.2106
     14 H          10.3386   68.2971   -1.8949 H       1  UNL1        0.2105
     15 N          12.4658   66.6503    2.3038 N.ar    1  UNL1       -0.2551
     16 C          13.5935   66.7191    3.0335 C.ar    1  UNL1        0.3323
     17 N          13.6088   66.3333    4.3231 N.ar    1  UNL1       -0.2743
     18 C          12.4845   65.8705    4.9066 C.ar    1  UNL1        0.2626
     19 C          11.2901   65.7937    4.1505 C.ar    1  UNL1        0.0795
     20 C          11.3026   66.1913    2.8608 C.ar    1  UNL1        0.0869
     21 O          14.6146   67.1345    2.5205 O.2     1  UNL1       -0.2464
     22 O          12.4969   65.5214    6.0738 O.2     1  UNL1       -0.2670
     23 H          14.4308   66.3883    4.8345 H       1  UNL1        0.1734
     24 O          15.1781   71.5129   -3.3770 O.3     1  UNL1       -0.2703
     25 P          16.4177   70.4951   -3.5198 P.3     1  UNL1        0.2208
     26 O          17.1960   70.3976   -2.1132 O.3     1  UNL1       -0.4371
     27 O          15.9159   69.1562   -3.8991 O.2     1  UNL1       -0.5170
     28 O          17.4253   71.0326   -4.6550 O.3     1  UNL1       -0.2865
     29 C          18.5470   70.2798   -5.1200 C.3     1  UNL1        0.2611
     30 C          19.8393   71.0283   -4.7850 C.3     1  UNL1        0.1582
     31 C          19.8452   72.3729   -5.5187 C.3     1  UNL1        0.1625
     32 C          19.6921   72.1230   -7.0215 C.3     1  UNL1        0.1686
     33 C          18.4051   71.3321   -7.2703 C.3     1  UNL1        0.1760
     34 O          21.0811   73.0468   -5.2701 O.3     1  UNL1       -0.3801
     35 O          20.8125   71.3752   -7.4979 O.3     1  UNL1       -0.3794
     36 O          18.4508   70.1074   -6.5354 O.3     1  UNL1       -0.3263
     37 H          21.1535   73.9077   -5.7045 H       1  UNL1        0.2105
     38 H          20.7815   71.1793   -8.4448 H       1  UNL1        0.2105
     39 C          20.9931   70.8552   -2.6457 C.2     1  UNL1        0.2231
     40 C          21.0675   71.0919   -1.1601 C.3     1  UNL1        0.0946
     41 N          19.9108   71.2587   -3.3399 N.am    1  UNL1       -0.2994
     42 O          21.9080   70.3009   -3.2183 O.2     1  UNL1       -0.2751
     43 H          19.1787   71.7010   -2.8823 H       1  UNL1        0.1496
     44 C          18.2752   71.0265   -8.7637 C.3     1  UNL1        0.1693
     45 O          17.0115   70.4085   -9.0161 O.3     1  UNL1       -0.3794
     46 H          16.8603   70.1863   -9.9449 H       1  UNL1        0.2105
@<TRIPOS>BOND
     1    29    30    1
     2    30    41    1
     3    30    31    1
     4    31    34    1
     5    31    32    1
     6    32    35    1
     7    32    33    1
     8    33    36    1
     9    33    44    1
    10    39    40    1
    11    39    42    2
    12    39    41   am
    13    41    43    1
    14    29    28    1
    15    34    37    1
    16    35    38    1
    17    29    36    1
    18    44    45    1
    19    45    46    1
    20    15     6    1
    21    15    16   ar
    22    16    21    2
    23    16    17   ar
    24    17    23    1
    25    17    18   ar
    26    18    19   ar
    27    19    20   ar
    28    15    20   ar
    29    18    22    2
    30     6     7    1
    31     6    11    1
    32     7     9    1
    33     7     8    1
    34     8    13    1
    35     9    10    1
    36     9    12    1
    37    10     5    1
    38    10    11    1
    39    12    14    1
    40     5     4    1
    41     4     1    1
    42     1     2    1
    43     1    24    1
    44     1     3    2
    45    24    25    1
    46    28    25    1
    47    25    26    1
    48    25    27    2
