@<TRIPOS>MOLECULE
GDU
 43 45 0 0 0
SMALL
GASTEIGER

@<TRIPOS>ATOM
      1 P          22.1654   70.8155   -2.5003 P.3     1  UNL1        0.2189
      2 O          21.5425   69.5971   -1.9372 O.2     1  UNL1       -0.5170
      3 O          23.5357   70.4209   -3.2483 O.3     1  UNL1       -0.4371
      4 O          21.1571   71.4972   -3.5518 O.3     1  UNL1       -0.3112
      5 C          20.1903   72.2207   -2.7886 C.3     1  UNL1        0.1811
      6 C          17.9338   71.3112   -5.4359 C.3     1  UNL1        0.2383
      7 C          18.0228   70.0438   -4.5479 C.3     1  UNL1        0.1895
      8 O          16.7983   69.3073   -4.5861 O.3     1  UNL1       -0.3779
      9 C          18.2602   70.6495   -3.1401 C.3     1  UNL1        0.1713
     10 C          18.8095   72.0593   -3.4270 C.3     1  UNL1        0.1764
     11 O          18.9120   72.1992   -4.8546 O.3     1  UNL1       -0.3308
     12 O          17.0317   70.7223   -2.4138 O.3     1  UNL1       -0.3794
     13 H          16.9194   68.5350   -4.0163 H       1  UNL1        0.2106
     14 H          16.7089   69.8160   -2.3179 H       1  UNL1        0.2105
     15 N          18.2817   70.9974   -6.8228 N.ar    1  UNL1       -0.2551
     16 C          17.3110   70.6865   -7.6998 C.ar    1  UNL1        0.3323
     17 N          17.6037   70.3975   -8.9815 N.ar    1  UNL1       -0.2743
     18 C          18.8821   70.4056   -9.4056 C.ar    1  UNL1        0.2626
     19 C          19.9156   70.7257   -8.4914 C.ar    1  UNL1        0.0795
     20 C          19.5939   71.0158   -7.2128 C.ar    1  UNL1        0.0869
     21 O          16.1531   70.6755   -7.3321 O.2     1  UNL1       -0.2464
     22 O          19.1484   70.1395  -10.5643 O.2     1  UNL1       -0.2670
     23 H          16.8900   70.1795   -9.6019 H       1  UNL1        0.1734
     24 O          22.4843   71.8527   -1.3108 O.3     1  UNL1       -0.2703
     25 P          22.4235   71.0188    0.0643 P.3     1  UNL1        0.2208
     26 O          21.0970   70.3763    0.1930 O.2     1  UNL1       -0.5170
     27 O          23.5691   69.8867    0.0562 O.3     1  UNL1       -0.4371
     28 O          22.6621   72.0131    1.3071 O.3     1  UNL1       -0.2858
     29 C          21.3878   72.5564    1.6545 C.3     1  UNL1        0.2704
     30 C          21.3212   74.0198    1.2148 C.3     1  UNL1        0.1967
     31 C          22.4469   74.7987    1.9023 C.3     1  UNL1        0.1715
     32 C          22.3505   74.5669    3.4145 C.3     1  UNL1        0.1694
     33 C          22.3411   73.0608    3.6876 C.3     1  UNL1        0.1761
     34 O          21.4775   74.1012   -0.2030 O.3     1  UNL1       -0.3775
     35 O          22.3094   76.1925    1.6181 O.3     1  UNL1       -0.3794
     36 O          21.1481   75.1552    3.9124 O.3     1  UNL1       -0.3794
     37 O          21.2032   72.4659    3.0653 O.3     1  UNL1       -0.3258
     38 H          20.7538   73.5924   -0.5931 H       1  UNL1        0.2106
     39 H          22.3639   76.2892    0.6589 H       1  UNL1        0.2105
     40 H          21.1954   76.0995    3.7137 H       1  UNL1        0.2105
     41 C          22.2796   72.8183    5.1973 C.3     1  UNL1        0.1693
     42 O          20.9596   73.0930    5.6697 O.3     1  UNL1       -0.3794
     43 H          20.9633   72.9277    6.6226 H       1  UNL1        0.2105
@<TRIPOS>BOND
     1    15    16   ar
     2    15    20   ar
     3    15     6    1
     4    16    17   ar
     5    16    21    2
     6    17    18   ar
     7    17    23    1
     8    18    19   ar
     9    18    22    2
    10    19    20   ar
    11     6     7    1
    12     6    11    1
    13     7     8    1
    14     7     9    1
    15     8    13    1
    16     9    10    1
    17     9    12    1
    18    10    11    1
    19    10     5    1
    20    12    14    1
    21     5     4    1
    22     4     1    1
    23     1     2    2
    24     1     3    1
    25     1    24    1
    26    24    25    1
    27    25    26    2
    28    25    27    1
    29    25    28    1
    30    28    29    1
    31    29    30    1
    32    29    37    1
    33    30    31    1
    34    30    34    1
    35    31    32    1
    36    31    35    1
    37    32    33    1
    38    32    36    1
    39    33    41    1
    40    33    37    1
    41    41    42    1
    42    34    38    1
    43    35    39    1
    44    36    40    1
    45    42    43    1
@<TRIPOS>MOLECULE
GDU
 43 45 0 0 0
SMALL
GASTEIGER

@<TRIPOS>ATOM
      1 P          22.8747   71.9254   -3.2099 P.3     1  UNL1        0.2189
      2 O          22.7671   72.5453   -1.8706 O.2     1  UNL1       -0.5170
      3 O          23.4325   70.4221   -3.0622 O.3     1  UNL1       -0.4371
      4 O          21.4246   71.8938   -3.9051 O.3     1  UNL1       -0.3112
      5 C          20.4638   72.0945   -2.8673 C.3     1  UNL1        0.1811
      6 C          18.0649   71.2961   -5.4237 C.3     1  UNL1        0.2383
      7 C          18.1302   70.0239   -4.5404 C.3     1  UNL1        0.1895
      8 O          16.8724   69.3448   -4.5305 O.3     1  UNL1       -0.3779
      9 C          18.4507   70.6149   -3.1428 C.3     1  UNL1        0.1713
     10 C          19.0529   71.9984   -3.4506 C.3     1  UNL1        0.1764
     11 O          19.1053   72.1367   -4.8811 O.3     1  UNL1       -0.3308
     12 O          17.2565   70.7426   -2.3686 O.3     1  UNL1       -0.3794
     13 H          16.9802   68.5665   -3.9663 H       1  UNL1        0.2106
     14 H          16.8963   69.8520   -2.2603 H       1  UNL1        0.2105
     15 N          18.3430   70.9697   -6.8233 N.ar    1  UNL1       -0.2551
     16 C          17.3261   70.6899   -7.6576 C.ar    1  UNL1        0.3323
     17 N          17.5543   70.3902   -8.9499 N.ar    1  UNL1       -0.2743
     18 C          18.8131   70.3559   -9.4279 C.ar    1  UNL1        0.2626
     19 C          19.8945   70.6428   -8.5593 C.ar    1  UNL1        0.0795
     20 C          19.6372   70.9445   -7.2689 C.ar    1  UNL1        0.0869
     21 O          16.1852   70.7173   -7.2409 O.2     1  UNL1       -0.2464
     22 O          19.0209   70.0800  -10.5963 O.2     1  UNL1       -0.2670
     23 H          16.8081   70.1951   -9.5388 H       1  UNL1        0.1734
     24 O          23.8881   72.7856   -4.1184 O.3     1  UNL1       -0.2703
     25 P          24.0042   74.2399   -3.4391 P.3     1  UNL1        0.2208
     26 O          24.0429   74.0948   -1.9672 O.2     1  UNL1       -0.5170
     27 O          25.3536   74.9609   -3.9425 O.3     1  UNL1       -0.4371
     28 O          22.7321   75.1322   -3.8581 O.3     1  UNL1       -0.2858
     29 C          23.1619   76.0009   -4.9071 C.3     1  UNL1        0.2704
     30 C          22.1955   77.1811   -5.0190 C.3     1  UNL1        0.1967
     31 C          20.7876   76.6476   -5.3013 C.3     1  UNL1        0.1715
     32 C          20.8471   75.7344   -6.5310 C.3     1  UNL1        0.1694
     33 C          21.9153   74.6619   -6.3033 C.3     1  UNL1        0.1761
     34 O          22.1937   77.9160   -3.7938 O.3     1  UNL1       -0.3775
     35 O          19.9019   77.7403   -5.5542 O.3     1  UNL1       -0.3794
     36 O          21.1782   76.5080   -7.6851 O.3     1  UNL1       -0.3794
     37 O          23.1904   75.2802   -6.1369 O.3     1  UNL1       -0.3258
     38 H          23.0987   78.2258   -3.6529 H       1  UNL1        0.2106
     39 H          19.9051   78.2923   -4.7620 H       1  UNL1        0.2105
     40 H          20.4837   77.1718   -7.7857 H       1  UNL1        0.2105
     41 C          21.9591   73.7236   -7.5115 C.3     1  UNL1        0.1693
     42 O          22.7987   72.6062   -7.2155 O.3     1  UNL1       -0.3794
     43 H          22.7986   72.0406   -7.9999 H       1  UNL1        0.2105
@<TRIPOS>BOND
     1    15    16   ar
     2    15    20   ar
     3    15     6    1
     4    16    17   ar
     5    16    21    2
     6    17    18   ar
     7    17    23    1
     8    18    19   ar
     9    18    22    2
    10    19    20   ar
    11     6     7    1
    12     6    11    1
    13     7     8    1
    14     7     9    1
    15     8    13    1
    16     9    10    1
    17     9    12    1
    18    10    11    1
    19    10     5    1
    20    12    14    1
    21     5     4    1
    22     4     1    1
    23     1     2    2
    24     1     3    1
    25     1    24    1
    26    24    25    1
    27    25    26    2
    28    25    27    1
    29    25    28    1
    30    28    29    1
    31    29    30    1
    32    29    37    1
    33    30    31    1
    34    30    34    1
    35    31    32    1
    36    31    35    1
    37    32    33    1
    38    32    36    1
    39    33    41    1
    40    33    37    1
    41    41    42    1
    42    34    38    1
    43    35    39    1
    44    36    40    1
    45    42    43    1
@<TRIPOS>MOLECULE
GDU
 43 45 0 0 0
SMALL
GASTEIGER

@<TRIPOS>ATOM
      1 P          21.8211   71.1535   -0.5236 P.3     1  UNL1        0.2189
      2 O          21.4627   70.0674    0.4153 O.2     1  UNL1       -0.5170
      3 O          22.7279   70.5571   -1.7131 O.3     1  UNL1       -0.4371
      4 O          20.4810   71.7946   -1.1401 O.3     1  UNL1       -0.3112
      5 C          20.5639   71.6422   -2.5580 C.3     1  UNL1        0.1811
      6 C          18.1454   71.2619   -5.1912 C.3     1  UNL1        0.2383
      7 C          18.0563   69.9396   -4.3871 C.3     1  UNL1        0.1895
      8 O          16.7332   69.4011   -4.4362 O.3     1  UNL1       -0.3779
      9 C          18.4100   70.4079   -2.9515 C.3     1  UNL1        0.1713
     10 C          19.1629   71.7342   -3.1653 C.3     1  UNL1        0.1764
     11 O          19.2586   71.9513   -4.5837 O.3     1  UNL1       -0.3308
     12 O          17.2209   70.6174   -2.1873 O.3     1  UNL1       -0.3794
     13 H          16.7456   68.5833   -3.9196 H       1  UNL1        0.2106
     14 H          16.7653   69.7661   -2.1390 H       1  UNL1        0.2105
     15 N          18.4151   70.9916   -6.6044 N.ar    1  UNL1       -0.2551
     16 C          17.3903   70.8190   -7.4577 C.ar    1  UNL1        0.3323
     17 N          17.6110   70.5728   -8.7626 N.ar    1  UNL1       -0.2743
     18 C          18.8694   70.4853   -9.2347 C.ar    1  UNL1        0.2626
     19 C          19.9588   70.6592   -8.3463 C.ar    1  UNL1        0.0795
     20 C          19.7092   70.9093   -7.0434 C.ar    1  UNL1        0.0869
     21 O          16.2497   70.8956   -7.0466 O.2     1  UNL1       -0.2464
     22 O          19.0701   70.2577  -10.4147 O.2     1  UNL1       -0.2670
     23 H          16.8594   70.4551   -9.3651 H       1  UNL1        0.1734
     24 O          22.6486   72.2895    0.2622 O.3     1  UNL1       -0.2703
     25 P          22.2196   72.1925    1.8103 P.3     1  UNL1        0.2208
     26 O          20.7659   71.9333    1.9038 O.2     1  UNL1       -0.5170
     27 O          23.0251   70.9894    2.5158 O.3     1  UNL1       -0.4371
     28 O          22.5676   73.5774    2.5525 O.3     1  UNL1       -0.2858
     29 C          23.4816   73.2660    3.6048 C.3     1  UNL1        0.2704
     30 C          22.7631   73.3711    4.9510 C.3     1  UNL1        0.1967
     31 C          22.2146   74.7920    5.1138 C.3     1  UNL1        0.1715
     32 C          23.3623   75.7869    4.9076 C.3     1  UNL1        0.1694
     33 C          24.0345   75.4996    3.5628 C.3     1  UNL1        0.1761
     34 O          21.6863   72.4330    4.9933 O.3     1  UNL1       -0.3775
     35 O          21.6698   74.9489    6.4257 O.3     1  UNL1       -0.3794
     36 O          24.3139   75.6441    5.9631 O.3     1  UNL1       -0.3794
     37 O          24.5756   74.1794    3.5675 O.3     1  UNL1       -0.3258
     38 H          22.0763   71.5554    4.8799 H       1  UNL1        0.2106
     39 H          20.9624   74.2977    6.5147 H       1  UNL1        0.2105
     40 H          23.8463   75.8280    6.7883 H       1  UNL1        0.2105
     41 C          25.1605   76.5098    3.3313 C.3     1  UNL1        0.1693
     42 O          24.7937   77.7689    3.8980 O.3     1  UNL1       -0.3794
     43 H          25.5284   78.3754    3.7316 H       1  UNL1        0.2105
@<TRIPOS>BOND
     1    15    16   ar
     2    15    20   ar
     3    15     6    1
     4    16    17   ar
     5    16    21    2
     6    17    18   ar
     7    17    23    1
     8    18    19   ar
     9    18    22    2
    10    19    20   ar
    11     6     7    1
    12     6    11    1
    13     7     8    1
    14     7     9    1
    15     8    13    1
    16     9    10    1
    17     9    12    1
    18    10    11    1
    19    10     5    1
    20    12    14    1
    21     5     4    1
    22     4     1    1
    23     1     2    2
    24     1     3    1
    25     1    24    1
    26    24    25    1
    27    25    26    2
    28    25    27    1
    29    25    28    1
    30    28    29    1
    31    29    30    1
    32    29    37    1
    33    30    31    1
    34    30    34    1
    35    31    32    1
    36    31    35    1
    37    32    33    1
    38    32    36    1
    39    33    41    1
    40    33    37    1
    41    41    42    1
    42    34    38    1
    43    35    39    1
    44    36    40    1
    45    42    43    1
@<TRIPOS>MOLECULE
GDU
 43 45 0 0 0
SMALL
GASTEIGER

@<TRIPOS>ATOM
      1 P          22.4103   71.7652   -2.5679 P.3     1  UNL1        0.2189
      2 O          21.9052   71.2162   -1.2900 O.2     1  UNL1       -0.5170
      3 O          23.3439   70.6701   -3.2905 O.3     1  UNL1       -0.4371
      4 O          21.1693   72.1276   -3.5246 O.3     1  UNL1       -0.3112
      5 C          20.1187   72.5984   -2.6790 C.3     1  UNL1        0.1811
      6 C          17.9694   71.2917   -5.2481 C.3     1  UNL1        0.2383
      7 C          18.2990   70.0672   -4.3564 C.3     1  UNL1        0.1895
      8 O          17.2164   69.1338   -4.3516 O.3     1  UNL1       -0.3779
      9 C          18.4730   70.7195   -2.9602 C.3     1  UNL1        0.1713
     10 C          18.7664   72.1987   -3.2721 C.3     1  UNL1        0.1764
     11 O          18.8001   72.3387   -4.7030 O.3     1  UNL1       -0.3308
     12 O          17.2727   70.5911   -2.1956 O.3     1  UNL1       -0.3794
     13 H          17.4841   68.3993   -3.7817 H       1  UNL1        0.2106
     14 H          17.1113   69.6443   -2.0845 H       1  UNL1        0.2105
     15 N          18.3230   71.0264   -6.6435 N.ar    1  UNL1       -0.2551
     16 C          17.3552   70.7549   -7.5367 C.ar    1  UNL1        0.3323
     17 N          17.6531   70.5109   -8.8265 N.ar    1  UNL1       -0.2743
     18 C          18.9340   70.5253   -9.2430 C.ar    1  UNL1        0.2626
     19 C          19.9645   70.8041   -8.3120 C.ar    1  UNL1        0.0795
     20 C          19.6375   71.0494   -7.0254 C.ar    1  UNL1        0.0869
     21 O          16.1951   70.7389   -7.1760 O.2     1  UNL1       -0.2464
     22 O          19.2051   70.2998  -10.4093 O.2     1  UNL1       -0.2670
     23 H          16.9415   70.3210   -9.4584 H       1  UNL1        0.1734
     24 O          23.2714   73.0942   -2.2769 O.3     1  UNL1       -0.2703
     25 P          23.6190   73.7472   -3.7061 P.3     1  UNL1        0.2208
     26 O          23.4557   72.7284   -4.7665 O.2     1  UNL1       -0.5170
     27 O          22.6223   74.9803   -3.9892 O.3     1  UNL1       -0.4371
     28 O          25.1385   74.2776   -3.6997 O.3     1  UNL1       -0.2858
     29 C          25.0806   75.7013   -3.6020 C.3     1  UNL1        0.2704
     30 C          26.1559   76.3173   -4.4984 C.3     1  UNL1        0.1967
     31 C          27.5287   75.8003   -4.0576 C.3     1  UNL1        0.1715
     32 C          27.6960   76.0709   -2.5581 C.3     1  UNL1        0.1694
     33 C          26.5039   75.4713   -1.8082 C.3     1  UNL1        0.1761
     34 O          25.9166   75.9461   -5.8571 O.3     1  UNL1       -0.3775
     35 O          28.5539   76.4777   -4.7875 O.3     1  UNL1       -0.3794
     36 O          27.7505   77.4798   -2.3300 O.3     1  UNL1       -0.3794
     37 O          25.2968   76.0921   -2.2480 O.3     1  UNL1       -0.3258
     38 H          25.0412   76.2849   -6.0889 H       1  UNL1        0.2106
     39 H          28.4026   76.2898   -5.7224 H       1  UNL1        0.2105
     40 H          28.5102   77.8142   -2.8244 H       1  UNL1        0.2105
     41 C          26.6782   75.7061   -0.3060 C.3     1  UNL1        0.1693
     42 O          26.0962   76.9614    0.0497 O.3     1  UNL1       -0.3794
     43 H          26.2264   77.0705    1.0018 H       1  UNL1        0.2105
@<TRIPOS>BOND
     1    15    16   ar
     2    15    20   ar
     3    15     6    1
     4    16    17   ar
     5    16    21    2
     6    17    18   ar
     7    17    23    1
     8    18    19   ar
     9    18    22    2
    10    19    20   ar
    11     6     7    1
    12     6    11    1
    13     7     8    1
    14     7     9    1
    15     8    13    1
    16     9    10    1
    17     9    12    1
    18    10    11    1
    19    10     5    1
    20    12    14    1
    21     5     4    1
    22     4     1    1
    23     1     2    2
    24     1     3    1
    25     1    24    1
    26    24    25    1
    27    25    26    2
    28    25    27    1
    29    25    28    1
    30    28    29    1
    31    29    30    1
    32    29    37    1
    33    30    31    1
    34    30    34    1
    35    31    32    1
    36    31    35    1
    37    32    33    1
    38    32    36    1
    39    33    41    1
    40    33    37    1
    41    41    42    1
    42    34    38    1
    43    35    39    1
    44    36    40    1
    45    42    43    1
@<TRIPOS>MOLECULE
GDU
 43 45 0 0 0
SMALL
GASTEIGER

@<TRIPOS>ATOM
      1 P          21.7279   70.2760   -0.3790 P.3     1  UNL1        0.2189
      2 O          21.9277   69.1458    0.5549 O.2     1  UNL1       -0.5170
      3 O          23.1595   70.8222   -0.8743 O.3     1  UNL1       -0.4371
      4 O          20.8746   69.7792   -1.6486 O.3     1  UNL1       -0.3112
      5 C          20.9630   70.8086   -2.6350 C.3     1  UNL1        0.1811
      6 C          18.4014   71.0059   -5.1503 C.3     1  UNL1        0.2383
      7 C          18.1660   69.6372   -4.4617 C.3     1  UNL1        0.1895
      8 O          16.7802   69.2874   -4.4829 O.3     1  UNL1       -0.3779
      9 C          18.6439   69.9160   -3.0128 C.3     1  UNL1        0.1713
     10 C          19.5628   71.1440   -3.1516 C.3     1  UNL1        0.1764
     11 O          19.6250   71.4796   -4.5487 O.3     1  UNL1       -0.3308
     12 O          17.5301   70.2092   -2.1670 O.3     1  UNL1       -0.3794
     13 H          16.7022   68.4300   -4.0415 H       1  UNL1        0.2106
     14 H          16.9638   69.4256   -2.1680 H       1  UNL1        0.2105
     15 N          18.5686   70.8369   -6.5947 N.ar    1  UNL1       -0.2551
     16 C          17.4850   70.7696   -7.3881 C.ar    1  UNL1        0.3323
     17 N          17.6112   70.6181   -8.7197 N.ar    1  UNL1       -0.2743
     18 C          18.8320   70.5211   -9.2803 C.ar    1  UNL1        0.2626
     19 C          19.9823   70.5845   -8.4563 C.ar    1  UNL1        0.0795
     20 C          19.8273   70.7412   -7.1244 C.ar    1  UNL1        0.0869
     21 O          16.3772   70.8562   -6.8968 O.2     1  UNL1       -0.2464
     22 O          18.9471   70.3791  -10.4849 O.2     1  UNL1       -0.2670
     23 H          16.8183   70.5758   -9.2776 H       1  UNL1        0.1734
     24 O          20.9349   71.4585    0.3729 O.3     1  UNL1       -0.2703
     25 P          21.9085   72.0120    1.5286 P.3     1  UNL1        0.2208
     26 O          22.8149   70.9292    1.9702 O.2     1  UNL1       -0.5170
     27 O          22.7793   73.2392    0.9542 O.3     1  UNL1       -0.4371
     28 O          21.0278   72.5184    2.7768 O.3     1  UNL1       -0.2858
     29 C          21.3219   73.9044    2.9570 C.3     1  UNL1        0.2704
     30 C          22.2056   74.0808    4.1928 C.3     1  UNL1        0.1967
     31 C          21.4715   73.5204    5.4148 C.3     1  UNL1        0.1715
     32 C          20.0900   74.1791    5.5013 C.3     1  UNL1        0.1694
     33 C          19.3655   73.9932    4.1658 C.3     1  UNL1        0.1761
     34 O          23.4349   73.3770    4.0067 O.3     1  UNL1       -0.3775
     35 O          22.2188   73.8095    6.5982 O.3     1  UNL1       -0.3794
     36 O          20.2413   75.5720    5.7785 O.3     1  UNL1       -0.3794
     37 O          20.1054   74.6287    3.1243 O.3     1  UNL1       -0.3258
     38 H          23.8583   73.7570    3.2249 H       1  UNL1        0.2106
     39 H          23.0810   73.3874    6.4948 H       1  UNL1        0.2105
     40 H          20.7060   75.6405    6.6227 H       1  UNL1        0.2105
     41 C          17.9711   74.6177    4.2528 C.3     1  UNL1        0.1693
     42 O          18.0838   75.9742    4.6865 O.3     1  UNL1       -0.3794
     43 H          17.1857   76.3305    4.7274 H       1  UNL1        0.2105
@<TRIPOS>BOND
     1    15    16   ar
     2    15    20   ar
     3    15     6    1
     4    16    17   ar
     5    16    21    2
     6    17    18   ar
     7    17    23    1
     8    18    19   ar
     9    18    22    2
    10    19    20   ar
    11     6     7    1
    12     6    11    1
    13     7     8    1
    14     7     9    1
    15     8    13    1
    16     9    10    1
    17     9    12    1
    18    10    11    1
    19    10     5    1
    20    12    14    1
    21     5     4    1
    22     4     1    1
    23     1     2    2
    24     1     3    1
    25     1    24    1
    26    24    25    1
    27    25    26    2
    28    25    27    1
    29    25    28    1
    30    28    29    1
    31    29    30    1
    32    29    37    1
    33    30    31    1
    34    30    34    1
    35    31    32    1
    36    31    35    1
    37    32    33    1
    38    32    36    1
    39    33    41    1
    40    33    37    1
    41    41    42    1
    42    34    38    1
    43    35    39    1
    44    36    40    1
    45    42    43    1
@<TRIPOS>MOLECULE
GDU
 43 45 0 0 0
SMALL
GASTEIGER

@<TRIPOS>ATOM
      1 P          23.0497   73.5357   -2.8903 P.3     1  UNL1        0.2189
      2 O          23.8951   73.6874   -1.6854 O.2     1  UNL1       -0.5170
      3 O          23.8207   72.6306   -3.9762 O.3     1  UNL1       -0.4371
      4 O          21.6633   72.8267   -2.4879 O.3     1  UNL1       -0.3112
      5 C          20.6468   73.4133   -3.3022 C.3     1  UNL1        0.1811
      6 C          18.8205   71.0666   -5.3234 C.3     1  UNL1        0.2383
      7 C          19.8889   70.2079   -4.5995 C.3     1  UNL1        0.1895
      8 O          19.4087   68.8807   -4.3733 O.3     1  UNL1       -0.3779
      9 C          20.0639   70.9687   -3.2595 C.3     1  UNL1        0.1713
     10 C          19.5437   72.3860   -3.5631 C.3     1  UNL1        0.1764
     11 O          19.1648   72.4178   -4.9500 O.3     1  UNL1       -0.3308
     12 O          19.2869   70.3531   -2.2303 O.3     1  UNL1       -0.3794
     13 H          20.1174   68.4008   -3.9224 H       1  UNL1        0.2106
     14 H          19.6211   69.4517   -2.1282 H       1  UNL1        0.2105
     15 N          18.9123   70.8931   -6.7740 N.ar    1  UNL1       -0.2551
     16 C          17.8160   70.5556   -7.4759 C.ar    1  UNL1        0.3323
     17 N          17.8726   70.3933   -8.8109 N.ar    1  UNL1       -0.2743
     18 C          19.0373   70.5578   -9.4672 C.ar    1  UNL1        0.2626
     19 C          20.2014   70.9076   -8.7401 C.ar    1  UNL1        0.0795
     20 C          20.1158   71.0683   -7.4024 C.ar    1  UNL1        0.0869
     21 O          16.7582   70.4043   -6.8978 O.2     1  UNL1       -0.2464
     22 O          19.0904   70.4065  -10.6750 O.2     1  UNL1       -0.2670
     23 H          17.0706   70.1539   -9.3022 H       1  UNL1        0.1734
     24 O          22.7488   74.9869   -3.5197 O.3     1  UNL1       -0.2703
     25 P          24.1015   75.4702   -4.2455 P.3     1  UNL1        0.2208
     26 O          24.4206   76.8520   -3.8238 O.2     1  UNL1       -0.5170
     27 O          25.3114   74.4906   -3.8324 O.3     1  UNL1       -0.4371
     28 O          23.8998   75.4283   -5.8416 O.3     1  UNL1       -0.2858
     29 C          22.4962   75.3149   -6.0797 C.3     1  UNL1        0.2704
     30 C          22.2403   74.1994   -7.0944 C.3     1  UNL1        0.1967
     31 C          22.9845   74.5261   -8.3928 C.3     1  UNL1        0.1715
     32 C          22.5767   75.9308   -8.8511 C.3     1  UNL1        0.1694
     33 C          22.8092   76.9160   -7.7029 C.3     1  UNL1        0.1761
     34 O          22.7129   72.9574   -6.5696 O.3     1  UNL1       -0.3775
     35 O          22.6382   73.5711   -9.3980 O.3     1  UNL1       -0.3794
     36 O          21.1959   75.9323   -9.2162 O.3     1  UNL1       -0.3794
     37 O          22.0002   76.5522   -6.5853 O.3     1  UNL1       -0.3258
     38 H          22.2236   72.7960   -5.7514 H       1  UNL1        0.2106
     39 H          22.9008   72.7044   -9.0630 H       1  UNL1        0.2105
     40 H          21.0961   75.2956   -9.9359 H       1  UNL1        0.2105
     41 C          22.4373   78.3279   -8.1615 C.3     1  UNL1        0.1693
     42 O          22.1840   79.1476   -7.0192 O.3     1  UNL1       -0.3794
     43 H          21.9545   80.0266   -7.3508 H       1  UNL1        0.2105
@<TRIPOS>BOND
     1    15    16   ar
     2    15    20   ar
     3    15     6    1
     4    16    17   ar
     5    16    21    2
     6    17    18   ar
     7    17    23    1
     8    18    19   ar
     9    18    22    2
    10    19    20   ar
    11     6     7    1
    12     6    11    1
    13     7     8    1
    14     7     9    1
    15     8    13    1
    16     9    10    1
    17     9    12    1
    18    10    11    1
    19    10     5    1
    20    12    14    1
    21     5     4    1
    22     4     1    1
    23     1     2    2
    24     1     3    1
    25     1    24    1
    26    24    25    1
    27    25    26    2
    28    25    27    1
    29    25    28    1
    30    28    29    1
    31    29    30    1
    32    29    37    1
    33    30    31    1
    34    30    34    1
    35    31    32    1
    36    31    35    1
    37    32    33    1
    38    32    36    1
    39    33    41    1
    40    33    37    1
    41    41    42    1
    42    34    38    1
    43    35    39    1
    44    36    40    1
    45    42    43    1
@<TRIPOS>MOLECULE
GDU
 43 45 0 0 0
SMALL
GASTEIGER

@<TRIPOS>ATOM
      1 P          22.1822   70.4588   -0.4203 P.3     1  UNL1        0.2189
      2 O          21.2932   71.0432    0.6082 O.2     1  UNL1       -0.5170
      3 O          23.3172   69.5682    0.2948 O.3     1  UNL1       -0.4371
      4 O          21.3193   69.5326   -1.4125 O.3     1  UNL1       -0.3112
      5 C          21.3238   70.1761   -2.6878 C.3     1  UNL1        0.1811
      6 C          18.6128   70.7089   -4.9887 C.3     1  UNL1        0.2383
      7 C          18.4149   69.2567   -4.4838 C.3     1  UNL1        0.1895
      8 O          17.0291   68.9067   -4.4680 O.3     1  UNL1       -0.3779
      9 C          18.9824   69.3337   -3.0425 C.3     1  UNL1        0.1713
     10 C          19.8956   70.5734   -3.0656 C.3     1  UNL1        0.1764
     11 O          19.8729   71.1002   -4.4035 O.3     1  UNL1       -0.3308
     12 O          17.9240   69.5013   -2.0971 O.3     1  UNL1       -0.3794
     13 H          16.9751   67.9960   -4.1461 H       1  UNL1        0.2106
     14 H          17.3556   68.7228   -2.1721 H       1  UNL1        0.2105
     15 N          18.6899   70.7431   -6.4501 N.ar    1  UNL1       -0.2551
     16 C          17.5590   70.7672   -7.1772 C.ar    1  UNL1        0.3323
     17 N          17.6022   70.8024   -8.5221 N.ar    1  UNL1       -0.2743
     18 C          18.7860   70.8042   -9.1646 C.ar    1  UNL1        0.2626
     19 C          19.9854   70.7732   -8.4118 C.ar    1  UNL1        0.0795
     20 C          19.9135   70.7425   -7.0641 C.ar    1  UNL1        0.0869
     21 O          16.4837   70.7665   -6.6117 O.2     1  UNL1       -0.2464
     22 O          18.8260   70.8313  -10.3820 O.2     1  UNL1       -0.2670
     23 H          16.7761   70.8238   -9.0309 H       1  UNL1        0.1734
     24 O          22.8803   71.6420   -1.2599 O.3     1  UNL1       -0.2703
     25 P          22.2574   73.0255   -0.7231 P.3     1  UNL1        0.2208
     26 O          20.8052   72.8570   -0.4958 O.2     1  UNL1       -0.5170
     27 O          22.9728   73.4345    0.6608 O.3     1  UNL1       -0.4371
     28 O          22.5001   74.1836   -1.8140 O.3     1  UNL1       -0.2858
     29 C          21.8734   73.7528   -3.0229 C.3     1  UNL1        0.2704
     30 C          22.8715   73.8532   -4.1775 C.3     1  UNL1        0.1967
     31 C          23.3460   75.3043   -4.3016 C.3     1  UNL1        0.1715
     32 C          22.1174   76.2132   -4.4205 C.3     1  UNL1        0.1694
     33 C          21.1768   75.9349   -3.2454 C.3     1  UNL1        0.1761
     34 O          23.9899   73.0027   -3.9186 O.3     1  UNL1       -0.3775
     35 O          24.1641   75.4441   -5.4651 O.3     1  UNL1       -0.3794
     36 O          21.4437   75.9472   -5.6515 O.3     1  UNL1       -0.3794
     37 O          20.7409   74.5770   -3.2889 O.3     1  UNL1       -0.3258
     38 H          23.6443   72.1031   -3.8411 H       1  UNL1        0.2106
     39 H          24.9152   74.8479   -5.3524 H       1  UNL1        0.2105
     40 H          22.0738   76.1298   -6.3606 H       1  UNL1        0.2105
     41 C          19.9625   76.8618   -3.3359 C.3     1  UNL1        0.1693
     42 O          20.0568   77.8689   -2.3269 O.3     1  UNL1       -0.3794
     43 H          19.2751   78.4309   -2.4185 H       1  UNL1        0.2105
@<TRIPOS>BOND
     1    15    16   ar
     2    15    20   ar
     3    15     6    1
     4    16    17   ar
     5    16    21    2
     6    17    18   ar
     7    17    23    1
     8    18    19   ar
     9    18    22    2
    10    19    20   ar
    11     6     7    1
    12     6    11    1
    13     7     8    1
    14     7     9    1
    15     8    13    1
    16     9    10    1
    17     9    12    1
    18    10    11    1
    19    10     5    1
    20    12    14    1
    21     5     4    1
    22     4     1    1
    23     1     2    2
    24     1     3    1
    25     1    24    1
    26    24    25    1
    27    25    26    2
    28    25    27    1
    29    25    28    1
    30    28    29    1
    31    29    30    1
    32    29    37    1
    33    30    31    1
    34    30    34    1
    35    31    32    1
    36    31    35    1
    37    32    33    1
    38    32    36    1
    39    33    41    1
    40    33    37    1
    41    41    42    1
    42    34    38    1
    43    35    39    1
    44    36    40    1
    45    42    43    1
@<TRIPOS>MOLECULE
GDU
 43 45 0 0 0
SMALL
GASTEIGER

@<TRIPOS>ATOM
      1 P          22.0754   73.9694   -6.6344 P.3     1  UNL1        0.2189
      2 O          22.7674   72.6781   -6.8423 O.2     1  UNL1       -0.5170
      3 O          23.1559   75.1633   -6.6344 O.3     1  UNL1       -0.4371
      4 O          21.0136   74.2066   -7.8190 O.3     1  UNL1       -0.3112
      5 C          21.3287   73.2701   -8.8507 C.3     1  UNL1        0.1811
      6 C          18.7456   71.1082   -7.5934 C.3     1  UNL1        0.2383
      7 C          18.0224   72.4469   -7.8898 C.3     1  UNL1        0.1895
      8 O          16.6620   72.2195   -8.2650 O.3     1  UNL1       -0.3779
      9 C          18.8407   73.0004   -9.0853 C.3     1  UNL1        0.1713
     10 C          20.1880   72.2605   -8.9912 C.3     1  UNL1        0.1764
     11 O          20.1360   71.4173   -7.8274 O.3     1  UNL1       -0.3308
     12 O          18.1847   72.7040  -10.3197 O.3     1  UNL1       -0.3794
     13 H          16.2706   73.0877   -8.4346 H       1  UNL1        0.2106
     14 H          17.3252   73.1458  -10.2932 H       1  UNL1        0.2105
     15 N          18.5343   70.7022   -6.2029 N.ar    1  UNL1       -0.2551
     16 C          17.3939   70.0799   -5.8558 C.ar    1  UNL1        0.3323
     17 N          17.1764   69.6931   -4.5850 N.ar    1  UNL1       -0.2743
     18 C          18.0990   69.9336   -3.6337 C.ar    1  UNL1        0.2626
     19 C          19.3025   70.5934   -3.9836 C.ar    1  UNL1        0.0795
     20 C          19.4970   70.9668   -5.2662 C.ar    1  UNL1        0.0869
     21 O          16.5526   69.8557   -6.7032 O.2     1  UNL1       -0.2464
     22 O          17.9009   69.5882   -2.4822 O.2     1  UNL1       -0.2670
     23 H          16.3494   69.2413   -4.3532 H       1  UNL1        0.1734
     24 O          21.3064   73.9435   -5.2200 O.3     1  UNL1       -0.2703
     25 P          22.4308   73.7784   -4.0806 P.3     1  UNL1        0.2208
     26 O          23.4960   72.8736   -4.5663 O.2     1  UNL1       -0.5170
     27 O          23.0652   75.2192   -3.7402 O.3     1  UNL1       -0.4371
     28 O          21.7641   73.1598   -2.7528 O.3     1  UNL1       -0.2858
     29 C          22.8356   72.7284   -1.9128 C.3     1  UNL1        0.2704
     30 C          22.6286   71.2603   -1.5371 C.3     1  UNL1        0.1967
     31 C          21.2845   71.1147   -0.8169 C.3     1  UNL1        0.1715
     32 C          21.2482   72.0998    0.3569 C.3     1  UNL1        0.1694
     33 C          21.5582   73.5056   -0.1633 C.3     1  UNL1        0.1761
     34 O          22.6289   70.4590   -2.7198 O.3     1  UNL1       -0.3775
     35 O          21.1430   69.7785   -0.3301 O.3     1  UNL1       -0.3794
     36 O          22.2221   71.7197    1.3300 O.3     1  UNL1       -0.3794
     37 O          22.8656   73.5302   -0.7343 O.3     1  UNL1       -0.3258
     38 H          23.4887   70.5869   -3.1433 H       1  UNL1        0.2106
     39 H          21.1835   69.1950   -1.0983 H       1  UNL1        0.2105
     40 H          21.9911   70.8289    1.6241 H       1  UNL1        0.2105
     41 C          21.4907   74.5028    0.9956 C.3     1  UNL1        0.1693
     42 O          22.7486   74.5313    1.6722 O.3     1  UNL1       -0.3794
     43 H          22.6644   75.1706    2.3929 H       1  UNL1        0.2105
@<TRIPOS>BOND
     1    15    16   ar
     2    15    20   ar
     3    15     6    1
     4    16    17   ar
     5    16    21    2
     6    17    18   ar
     7    17    23    1
     8    18    19   ar
     9    18    22    2
    10    19    20   ar
    11     6     7    1
    12     6    11    1
    13     7     8    1
    14     7     9    1
    15     8    13    1
    16     9    10    1
    17     9    12    1
    18    10    11    1
    19    10     5    1
    20    12    14    1
    21     5     4    1
    22     4     1    1
    23     1     2    2
    24     1     3    1
    25     1    24    1
    26    24    25    1
    27    25    26    2
    28    25    27    1
    29    25    28    1
    30    28    29    1
    31    29    30    1
    32    29    37    1
    33    30    31    1
    34    30    34    1
    35    31    32    1
    36    31    35    1
    37    32    33    1
    38    32    36    1
    39    33    41    1
    40    33    37    1
    41    41    42    1
    42    34    38    1
    43    35    39    1
    44    36    40    1
    45    42    43    1
@<TRIPOS>MOLECULE
GDU
 43 45 0 0 0
SMALL
GASTEIGER

@<TRIPOS>ATOM
      1 P          21.1865   74.7103   -3.1891 P.3     1  UNL1        0.2189
      2 O          20.3457   75.8516   -3.6136 O.2     1  UNL1       -0.5170
      3 O          22.6956   74.9350   -3.7038 O.3     1  UNL1       -0.4371
      4 O          21.1770   74.6040   -1.5843 O.3     1  UNL1       -0.3112
      5 C          21.0197   73.2212   -1.2622 C.3     1  UNL1        0.1811
      6 C          23.0500   72.4478    1.6026 C.3     1  UNL1        0.2383
      7 C          22.3074   71.1250    1.2835 C.3     1  UNL1        0.1895
      8 O          23.1007   69.9937    1.6495 O.3     1  UNL1       -0.3779
      9 C          22.1410   71.2092   -0.2561 C.3     1  UNL1        0.1713
     10 C          22.2829   72.7109   -0.5664 C.3     1  UNL1        0.1764
     11 O          22.4607   73.3946    0.6863 O.3     1  UNL1       -0.3308
     12 O          23.1646   70.4573   -0.9110 O.3     1  UNL1       -0.3794
     13 H          22.5840   69.2069    1.4265 H       1  UNL1        0.2106
     14 H          23.0592   69.5378   -0.6313 H       1  UNL1        0.2105
     15 N          22.8115   72.8543    2.9885 N.ar    1  UNL1       -0.2551
     16 C          21.6380   72.5622    3.5766 C.ar    1  UNL1        0.3323
     17 N          21.3948   72.9215    4.8508 N.ar    1  UNL1       -0.2743
     18 C          22.3249   73.5919    5.5577 C.ar    1  UNL1        0.2626
     19 C          23.5634   73.9115    4.9493 C.ar    1  UNL1        0.0795
     20 C          23.7829   73.5356    3.6714 C.ar    1  UNL1        0.0869
     21 O          20.7895   71.9574    2.9518 O.2     1  UNL1       -0.2464
     22 O          22.1037   73.9218    6.7095 O.2     1  UNL1       -0.2670
     23 H          20.5439   72.6986    5.2608 H       1  UNL1        0.1734
     24 O          20.6021   73.3500   -3.8218 O.3     1  UNL1       -0.2703
     25 P          21.2255   73.2172   -5.2996 P.3     1  UNL1        0.2208
     26 O          21.2001   74.5380   -5.9659 O.2     1  UNL1       -0.5170
     27 O          22.7467   72.6984   -5.1954 O.3     1  UNL1       -0.4371
     28 O          20.3588   72.1661   -6.1564 O.3     1  UNL1       -0.2858
     29 C          19.1547   72.8334   -6.5365 C.3     1  UNL1        0.2704
     30 C          17.9547   72.1000   -5.9352 C.3     1  UNL1        0.1967
     31 C          17.9524   70.6527   -6.4367 C.3     1  UNL1        0.1715
     32 C          18.0089   70.6647   -7.9684 C.3     1  UNL1        0.1694
     33 C          19.2069   71.5059   -8.4157 C.3     1  UNL1        0.1761
     34 O          18.0502   72.1141   -4.5097 O.3     1  UNL1       -0.3775
     35 O          16.7593   69.9962   -6.0030 O.3     1  UNL1       -0.3794
     36 O          16.8031   71.2282   -8.4867 O.3     1  UNL1       -0.3794
     37 O          19.0502   72.8483   -7.9582 O.3     1  UNL1       -0.3258
     38 H          18.0556   73.0425   -4.2397 H       1  UNL1        0.2106
     39 H          16.7602   70.0229   -5.0378 H       1  UNL1        0.2105
     40 H          16.0776   70.6711   -8.1758 H       1  UNL1        0.2105
     41 C          19.2927   71.4963   -9.9436 C.3     1  UNL1        0.1693
     42 O          18.6735   70.3113  -10.4472 O.3     1  UNL1       -0.3794
     43 H          18.7481   70.3444  -11.4108 H       1  UNL1        0.2105
@<TRIPOS>BOND
     1    15    16   ar
     2    15    20   ar
     3    15     6    1
     4    16    17   ar
     5    16    21    2
     6    17    18   ar
     7    17    23    1
     8    18    19   ar
     9    18    22    2
    10    19    20   ar
    11     6     7    1
    12     6    11    1
    13     7     8    1
    14     7     9    1
    15     8    13    1
    16     9    10    1
    17     9    12    1
    18    10    11    1
    19    10     5    1
    20    12    14    1
    21     5     4    1
    22     4     1    1
    23     1     2    2
    24     1     3    1
    25     1    24    1
    26    24    25    1
    27    25    26    2
    28    25    27    1
    29    25    28    1
    30    28    29    1
    31    29    30    1
    32    29    37    1
    33    30    31    1
    34    30    34    1
    35    31    32    1
    36    31    35    1
    37    32    33    1
    38    32    36    1
    39    33    41    1
    40    33    37    1
    41    41    42    1
    42    34    38    1
    43    35    39    1
    44    36    40    1
    45    42    43    1
@<TRIPOS>MOLECULE
GDU
 43 45 0 0 0
SMALL
GASTEIGER

@<TRIPOS>ATOM
      1 P          22.5453   72.9406   -4.4769 P.3     1  UNL1        0.2189
      2 O          23.8115   72.5604   -3.8123 O.2     1  UNL1       -0.5170
      3 O          21.9985   74.3162   -3.8431 O.3     1  UNL1       -0.4371
      4 O          22.8044   73.1410   -6.0516 O.3     1  UNL1       -0.3112
      5 C          22.3682   74.4615   -6.3779 C.3     1  UNL1        0.1811
      6 C          19.4583   73.4401   -8.2264 C.3     1  UNL1        0.2383
      7 C          19.0637   74.8026   -7.6011 C.3     1  UNL1        0.1895
      8 O          18.1364   75.4981   -8.4375 O.3     1  UNL1       -0.3779
      9 C          20.4254   75.5431   -7.5498 C.3     1  UNL1        0.1713
     10 C          21.4690   74.4124   -7.6145 C.3     1  UNL1        0.1764
     11 O          20.7521   73.1662   -7.6480 O.3     1  UNL1       -0.3308
     12 O          20.5591   76.4210   -8.6693 O.3     1  UNL1       -0.3794
     13 H          17.9323   76.3330   -7.9936 H       1  UNL1        0.2106
     14 H          19.8443   77.0687   -8.6043 H       1  UNL1        0.2105
     15 N          18.4965   72.4014   -7.8540 N.ar    1  UNL1       -0.2551
     16 C          18.3022   71.3494   -8.6688 C.ar    1  UNL1        0.3323
     17 N          17.4264   70.3789   -8.3483 N.ar    1  UNL1       -0.2743
     18 C          16.7194   70.4518   -7.2042 C.ar    1  UNL1        0.2626
     19 C          16.9093   71.5570   -6.3389 C.ar    1  UNL1        0.0795
     20 C          17.7971   72.5141   -6.6826 C.ar    1  UNL1        0.0869
     21 O          18.9331   71.2697   -9.7041 O.2     1  UNL1       -0.2464
     22 O          15.9228   69.5761   -6.9154 O.2     1  UNL1       -0.2670
     23 H          17.3020   69.6246   -8.9461 H       1  UNL1        0.1734
     24 O          21.4538   71.7779   -4.2550 O.3     1  UNL1       -0.2703
     25 P          21.9523   70.9033   -2.9994 P.3     1  UNL1        0.2208
     26 O          21.2838   69.5836   -3.0213 O.2     1  UNL1       -0.5170
     27 O          23.5473   70.6978   -3.0884 O.3     1  UNL1       -0.4371
     28 O          21.5866   71.6686   -1.6318 O.3     1  UNL1       -0.2858
     29 C          22.7331   71.5764   -0.7852 C.3     1  UNL1        0.2704
     30 C          22.3029   71.1065    0.6053 C.3     1  UNL1        0.1967
     31 C          21.2879   72.1017    1.1760 C.3     1  UNL1        0.1715
     32 C          21.8963   73.5076    1.1218 C.3     1  UNL1        0.1694
     33 C          22.3559   73.7963   -0.3094 C.3     1  UNL1        0.1761
     34 O          21.7048   69.8125    0.5094 O.3     1  UNL1       -0.3775
     35 O          20.9875   71.7578    2.5302 O.3     1  UNL1       -0.3794
     36 O          23.0119   73.5800    2.0108 O.3     1  UNL1       -0.3794
     37 O          23.3573   72.8548   -0.6925 O.3     1  UNL1       -0.3258
     38 H          22.3753   69.2220    0.1398 H       1  UNL1        0.2106
     39 H          20.6198   70.8650    2.5172 H       1  UNL1        0.2105
     40 H          22.6773   73.3863    2.8961 H       1  UNL1        0.2105
     41 C          22.9341   75.2113   -0.3819 C.3     1  UNL1        0.1693
     42 O          23.7555   75.3303   -1.5447 O.3     1  UNL1       -0.3794
     43 H          24.0989   76.2344   -1.5535 H       1  UNL1        0.2105
@<TRIPOS>BOND
     1    15    16   ar
     2    15    20   ar
     3    15     6    1
     4    16    17   ar
     5    16    21    2
     6    17    18   ar
     7    17    23    1
     8    18    19   ar
     9    18    22    2
    10    19    20   ar
    11     6     7    1
    12     6    11    1
    13     7     8    1
    14     7     9    1
    15     8    13    1
    16     9    10    1
    17     9    12    1
    18    10    11    1
    19    10     5    1
    20    12    14    1
    21     5     4    1
    22     4     1    1
    23     1     2    2
    24     1     3    1
    25     1    24    1
    26    24    25    1
    27    25    26    2
    28    25    27    1
    29    25    28    1
    30    28    29    1
    31    29    30    1
    32    29    37    1
    33    30    31    1
    34    30    34    1
    35    31    32    1
    36    31    35    1
    37    32    33    1
    38    32    36    1
    39    33    41    1
    40    33    37    1
    41    41    42    1
    42    34    38    1
    43    35    39    1
    44    36    40    1
    45    42    43    1
@<TRIPOS>MOLECULE
GDU
 43 45 0 0 0
SMALL
GASTEIGER

@<TRIPOS>ATOM
      1 P          22.4569   71.2235   -2.7201 P.3     1  UNL1        0.2189
      2 O          22.0505   69.9325   -3.3180 O.2     1  UNL1       -0.5170
      3 O          23.6044   71.8973   -3.6269 O.3     1  UNL1       -0.4371
      4 O          21.1852   72.2054   -2.6468 O.3     1  UNL1       -0.3112
      5 C          20.5108   72.1034   -3.9019 C.3     1  UNL1        0.1811
      6 C          17.0479   71.9541   -4.8576 C.3     1  UNL1        0.2383
      7 C          17.5991   70.5394   -5.1701 C.3     1  UNL1        0.1895
      8 O          16.5792   69.5496   -5.0177 O.3     1  UNL1       -0.3779
      9 C          18.6978   70.3726   -4.0882 C.3     1  UNL1        0.1713
     10 C          19.0273   71.8158   -3.6638 C.3     1  UNL1        0.1764
     11 O          18.2238   72.6956   -4.4690 O.3     1  UNL1       -0.3308
     12 O          18.1983   69.6200   -2.9809 O.3     1  UNL1       -0.3794
     13 H          16.9851   68.6965   -5.2259 H       1  UNL1        0.2106
     14 H          17.9549   68.7485   -3.3215 H       1  UNL1        0.2105
     15 N          16.4351   72.5458   -6.0481 N.ar    1  UNL1       -0.2551
     16 C          16.8119   72.1283   -7.2696 C.ar    1  UNL1        0.3323
     17 N          16.2616   72.6534   -8.3801 N.ar    1  UNL1       -0.2743
     18 C          15.3264   73.6180   -8.2848 C.ar    1  UNL1        0.2626
     19 C          14.9238   74.0717   -7.0048 C.ar    1  UNL1        0.0795
     20 C          15.4888   73.5250   -5.9074 C.ar    1  UNL1        0.0869
     21 O          17.6541   71.2586   -7.3714 O.2     1  UNL1       -0.2464
     22 O          14.8311   74.0973   -9.2895 O.2     1  UNL1       -0.2670
     23 H          16.5425   72.3371   -9.2535 H       1  UNL1        0.1734
     24 O          23.0274   70.9704   -1.2358 O.3     1  UNL1       -0.2703
     25 P          21.8384   70.2941   -0.3880 P.3     1  UNL1        0.2208
     26 O          20.7687   69.8482   -1.3078 O.2     1  UNL1       -0.5170
     27 O          22.4118   69.0258    0.4225 O.3     1  UNL1       -0.4371
     28 O          21.2409   71.3679    0.6513 O.3     1  UNL1       -0.2858
     29 C          22.2932   72.2860    0.9504 C.3     1  UNL1        0.2704
     30 C          22.6229   72.2141    2.4422 C.3     1  UNL1        0.1967
     31 C          21.3647   72.5524    3.2477 C.3     1  UNL1        0.1715
     32 C          20.8213   73.9016    2.7641 C.3     1  UNL1        0.1694
     33 C          20.6262   73.8447    1.2470 C.3     1  UNL1        0.1761
     34 O          23.0640   70.8958    2.7719 O.3     1  UNL1       -0.3775
     35 O          21.6913   72.6336    4.6367 O.3     1  UNL1       -0.3794
     36 O          21.7495   74.9362    3.0929 O.3     1  UNL1       -0.3794
     37 O          21.8802   73.6071    0.6090 O.3     1  UNL1       -0.3258
     38 H          23.8513   70.7233    2.2377 H       1  UNL1        0.2106
     39 H          22.0389   71.7702    4.8934 H       1  UNL1        0.2105
     40 H          21.8453   74.9311    4.0542 H       1  UNL1        0.2105
     41 C          20.0513   75.1761    0.7581 C.3     1  UNL1        0.1693
     42 O          19.2478   75.7540    1.7884 O.3     1  UNL1       -0.3794
     43 H          18.9060   76.5894    1.4413 H       1  UNL1        0.2105
@<TRIPOS>BOND
     1    15    16   ar
     2    15    20   ar
     3    15     6    1
     4    16    17   ar
     5    16    21    2
     6    17    18   ar
     7    17    23    1
     8    18    19   ar
     9    18    22    2
    10    19    20   ar
    11     6     7    1
    12     6    11    1
    13     7     8    1
    14     7     9    1
    15     8    13    1
    16     9    10    1
    17     9    12    1
    18    10    11    1
    19    10     5    1
    20    12    14    1
    21     5     4    1
    22     4     1    1
    23     1     2    2
    24     1     3    1
    25     1    24    1
    26    24    25    1
    27    25    26    2
    28    25    27    1
    29    25    28    1
    30    28    29    1
    31    29    30    1
    32    29    37    1
    33    30    31    1
    34    30    34    1
    35    31    32    1
    36    31    35    1
    37    32    33    1
    38    32    36    1
    39    33    41    1
    40    33    37    1
    41    41    42    1
    42    34    38    1
    43    35    39    1
    44    36    40    1
    45    42    43    1
@<TRIPOS>MOLECULE
GDU
 43 45 0 0 0
SMALL
GASTEIGER

@<TRIPOS>ATOM
      1 P          21.7945   70.8014   -0.7526 P.3     1  UNL1        0.2189
      2 O          20.9040   69.6382   -0.9606 O.2     1  UNL1       -0.5170
      3 O          23.2690   70.2853   -0.3619 O.3     1  UNL1       -0.4371
      4 O          21.8703   71.6684   -2.1052 O.3     1  UNL1       -0.3112
      5 C          20.7313   71.3113   -2.8899 C.3     1  UNL1        0.1811
      6 C          20.0178   72.1754   -6.3063 C.3     1  UNL1        0.2383
      7 C          20.6743   73.4478   -5.7120 C.3     1  UNL1        0.1895
      8 O          21.3959   74.1655   -6.7157 O.3     1  UNL1       -0.3779
      9 C          21.6407   72.8517   -4.6557 C.3     1  UNL1        0.1713
     10 C          21.0697   71.4492   -4.3754 C.3     1  UNL1        0.1764
     11 O          19.8757   71.3048   -5.1638 O.3     1  UNL1       -0.3308
     12 O          22.9655   72.7634   -5.1841 O.3     1  UNL1       -0.3794
     13 H          21.7778   74.9419   -6.2831 H       1  UNL1        0.2106
     14 H          23.2439   73.6651   -5.3942 H       1  UNL1        0.2105
     15 N          18.7089   72.4886   -6.8820 N.ar    1  UNL1       -0.2551
     16 C          18.2130   71.7204   -7.8681 C.ar    1  UNL1        0.3323
     17 N          17.0105   71.9846   -8.4122 N.ar    1  UNL1       -0.2743
     18 C          16.2852   73.0347   -7.9816 C.ar    1  UNL1        0.2626
     19 C          16.7975   73.8560   -6.9476 C.ar    1  UNL1        0.0795
     20 C          18.0043   73.5661   -6.4165 C.ar    1  UNL1        0.0869
     21 O          18.8556   70.7695   -8.2666 O.2     1  UNL1       -0.2464
     22 O          15.1988   73.2774   -8.4768 O.2     1  UNL1       -0.2670
     23 H          16.6662   71.4171   -9.1201 H       1  UNL1        0.1734
     24 O          21.2136   71.7143    0.4397 O.3     1  UNL1       -0.2703
     25 P          21.8249   73.1894    0.2383 P.3     1  UNL1        0.2208
     26 O          23.1813   73.0857   -0.3435 O.2     1  UNL1       -0.5170
     27 O          20.8780   74.0313   -0.7560 O.3     1  UNL1       -0.4371
     28 O          21.9059   73.9368    1.6613 O.3     1  UNL1       -0.2858
     29 C          22.6811   73.1035    2.5242 C.3     1  UNL1        0.2704
     30 C          21.8124   72.6311    3.6910 C.3     1  UNL1        0.1967
     31 C          21.2873   73.8543    4.4489 C.3     1  UNL1        0.1715
     32 C          22.4778   74.7380    4.8379 C.3     1  UNL1        0.1694
     33 C          23.2955   75.0525    3.5827 C.3     1  UNL1        0.1761
     34 O          20.7131   71.8677    3.1910 O.3     1  UNL1       -0.3775
     35 O          20.5965   73.4298    5.6258 O.3     1  UNL1       -0.3794
     36 O          23.2945   74.0492    5.7859 O.3     1  UNL1       -0.3794
     37 O          23.7963   73.8413    3.0186 O.3     1  UNL1       -0.3258
     38 H          21.0897   71.1141    2.7164 H       1  UNL1        0.2106
     39 H          19.8662   72.8693    5.3348 H       1  UNL1        0.2105
     40 H          22.7383   73.8673    6.5546 H       1  UNL1        0.2105
     41 C          24.4679   75.9630    3.9547 C.3     1  UNL1        0.1693
     42 O          25.2335   76.2544    2.7842 O.3     1  UNL1       -0.3794
     43 H          25.9601   76.8296    3.0611 H       1  UNL1        0.2105
@<TRIPOS>BOND
     1    15    16   ar
     2    15    20   ar
     3    15     6    1
     4    16    17   ar
     5    16    21    2
     6    17    18   ar
     7    17    23    1
     8    18    19   ar
     9    18    22    2
    10    19    20   ar
    11     6     7    1
    12     6    11    1
    13     7     8    1
    14     7     9    1
    15     8    13    1
    16     9    10    1
    17     9    12    1
    18    10    11    1
    19    10     5    1
    20    12    14    1
    21     5     4    1
    22     4     1    1
    23     1     2    2
    24     1     3    1
    25     1    24    1
    26    24    25    1
    27    25    26    2
    28    25    27    1
    29    25    28    1
    30    28    29    1
    31    29    30    1
    32    29    37    1
    33    30    31    1
    34    30    34    1
    35    31    32    1
    36    31    35    1
    37    32    33    1
    38    32    36    1
    39    33    41    1
    40    33    37    1
    41    41    42    1
    42    34    38    1
    43    35    39    1
    44    36    40    1
    45    42    43    1
@<TRIPOS>MOLECULE
GDU
 43 45 0 0 0
SMALL
GASTEIGER

@<TRIPOS>ATOM
      1 P          22.2153   70.6845    0.3010 P.3     1  UNL1        0.2189
      2 O          22.7630   71.9633   -0.2033 O.2     1  UNL1       -0.5170
      3 O          23.2721   69.5016    0.0236 O.3     1  UNL1       -0.4371
      4 O          21.9447   70.8024    1.8821 O.3     1  UNL1       -0.3112
      5 C          21.7218   72.1854    2.1617 C.3     1  UNL1        0.1811
      6 C          23.8163   74.2352    4.2445 C.3     1  UNL1        0.2383
      7 C          22.3840   74.7809    4.4762 C.3     1  UNL1        0.1895
      8 O          22.2449   75.3023    5.7998 O.3     1  UNL1       -0.3779
      9 C          21.5174   73.5085    4.2890 C.3     1  UNL1        0.1713
     10 C          22.4155   72.5608    3.4724 C.3     1  UNL1        0.1764
     11 O          23.6400   73.2615    3.1937 O.3     1  UNL1       -0.3308
     12 O          21.1937   72.9335    5.5565 O.3     1  UNL1       -0.3794
     13 H          21.3360   75.6243    5.8786 H       1  UNL1        0.2106
     14 H          20.6830   73.5954    6.0421 H       1  UNL1        0.2105
     15 N          24.7146   75.3062    3.8099 N.ar    1  UNL1       -0.2551
     16 C          25.9696   75.3599    4.2900 C.ar    1  UNL1        0.3323
     17 N          26.8167   76.3322    3.9038 N.ar    1  UNL1       -0.2743
     18 C          26.4149   77.2777    3.0328 C.ar    1  UNL1        0.2626
     19 C          25.0939   77.2371    2.5232 C.ar    1  UNL1        0.0795
     20 C          24.2663   76.2486    2.9239 C.ar    1  UNL1        0.0869
     21 O          26.3465   74.5136    5.0760 O.2     1  UNL1       -0.2464
     22 O          27.1794   78.1609    2.6864 O.2     1  UNL1       -0.2670
     23 H          27.7203   76.3531    4.2572 H       1  UNL1        0.1734
     24 O          20.8338   70.3569   -0.4582 O.3     1  UNL1       -0.2703
     25 P          21.1596   70.3416   -2.0341 P.3     1  UNL1        0.2208
     26 O          22.5604   70.7651   -2.2521 O.2     1  UNL1       -0.5170
     27 O          20.9543   68.8514   -2.6099 O.3     1  UNL1       -0.4371
     28 O          20.1673   71.3522   -2.7983 O.3     1  UNL1       -0.2858
     29 C          20.5858   71.3919   -4.1632 C.3     1  UNL1        0.2704
     30 C          20.6481   72.8456   -4.6346 C.3     1  UNL1        0.1967
     31 C          19.2637   73.4814   -4.4747 C.3     1  UNL1        0.1715
     32 C          18.2353   72.6046   -5.1981 C.3     1  UNL1        0.1694
     33 C          18.3548   71.1685   -4.6821 C.3     1  UNL1        0.1761
     34 O          21.6000   73.5636   -3.8475 O.3     1  UNL1       -0.3775
     35 O          19.2681   74.7913   -5.0461 O.3     1  UNL1       -0.3794
     36 O          18.4862   72.6347   -6.6038 O.3     1  UNL1       -0.3794
     37 O          19.6588   70.6626   -4.9641 O.3     1  UNL1       -0.3258
     38 H          22.4528   73.1254   -3.9727 H       1  UNL1        0.2106
     39 H          19.9351   75.3020   -4.5702 H       1  UNL1        0.2105
     40 H          18.4061   73.5562   -6.8827 H       1  UNL1        0.2105
     41 C          17.3086   70.2912   -5.3734 C.3     1  UNL1        0.1693
     42 O          16.7749   69.3573   -4.4333 O.3     1  UNL1       -0.3794
     43 H          16.1208   68.8257   -4.9074 H       1  UNL1        0.2105
@<TRIPOS>BOND
     1    15    16   ar
     2    15    20   ar
     3    15     6    1
     4    16    17   ar
     5    16    21    2
     6    17    18   ar
     7    17    23    1
     8    18    19   ar
     9    18    22    2
    10    19    20   ar
    11     6     7    1
    12     6    11    1
    13     7     8    1
    14     7     9    1
    15     8    13    1
    16     9    10    1
    17     9    12    1
    18    10    11    1
    19    10     5    1
    20    12    14    1
    21     5     4    1
    22     4     1    1
    23     1     2    2
    24     1     3    1
    25     1    24    1
    26    24    25    1
    27    25    26    2
    28    25    27    1
    29    25    28    1
    30    28    29    1
    31    29    30    1
    32    29    37    1
    33    30    31    1
    34    30    34    1
    35    31    32    1
    36    31    35    1
    37    32    33    1
    38    32    36    1
    39    33    41    1
    40    33    37    1
    41    41    42    1
    42    34    38    1
    43    35    39    1
    44    36    40    1
    45    42    43    1
@<TRIPOS>MOLECULE
GDU
 43 45 0 0 0
SMALL
GASTEIGER

@<TRIPOS>ATOM
      1 P          23.0368   72.9548   -4.0151 P.3     1  UNL1        0.2189
      2 O          21.9209   73.6506   -3.3368 O.2     1  UNL1       -0.5170
      3 O          22.7240   72.8484   -5.5911 O.3     1  UNL1       -0.4371
      4 O          24.3989   73.7808   -3.7930 O.3     1  UNL1       -0.3112
      5 C          24.2941   74.4164   -2.5180 C.3     1  UNL1        0.1811
      6 C          27.4923   75.9733   -3.0425 C.3     1  UNL1        0.2383
      7 C          26.6634   76.3556   -4.2954 C.3     1  UNL1        0.1895
      8 O          27.0647   77.6301   -4.8030 O.3     1  UNL1       -0.3779
      9 C          25.2223   76.4161   -3.7254 C.3     1  UNL1        0.1713
     10 C          25.2929   75.5724   -2.4390 C.3     1  UNL1        0.1764
     11 O          26.6310   75.0557   -2.3357 O.3     1  UNL1       -0.3308
     12 O          24.8592   77.7656   -3.4273 O.3     1  UNL1       -0.3794
     13 H          26.5136   77.8077   -5.5780 H       1  UNL1        0.2106
     14 H          24.8905   78.2547   -4.2607 H       1  UNL1        0.2105
     15 N          28.7412   75.3147   -3.4289 N.ar    1  UNL1       -0.2551
     16 C          28.8354   74.7151   -4.6289 C.ar    1  UNL1        0.3323
     17 N          29.9734   74.1056   -5.0100 N.ar    1  UNL1       -0.2743
     18 C          31.0388   74.0781   -4.1863 C.ar    1  UNL1        0.2626
     19 C          30.9522   74.7005   -2.9169 C.ar    1  UNL1        0.0795
     20 C          29.8004   75.3084   -2.5616 C.ar    1  UNL1        0.0869
     21 O          27.8829   74.7321   -5.3829 O.2     1  UNL1       -0.2464
     22 O          32.0677   73.5225   -4.5284 O.2     1  UNL1       -0.2670
     23 H          30.0251   73.6816   -5.8814 H       1  UNL1        0.1734
     24 O          23.1984   71.4755   -3.4004 O.3     1  UNL1       -0.2703
     25 P          21.8079   71.1178   -2.6734 P.3     1  UNL1        0.2208
     26 O          21.9292   69.8092   -1.9937 O.2     1  UNL1       -0.5170
     27 O          21.4621   72.2560   -1.5875 O.3     1  UNL1       -0.4371
     28 O          20.6309   71.0477   -3.7687 O.3     1  UNL1       -0.2858
     29 C          19.4332   71.4752   -3.1188 C.3     1  UNL1        0.2704
     30 C          18.4413   70.3122   -3.0628 C.3     1  UNL1        0.1967
     31 C          18.1439   69.8414   -4.4897 C.3     1  UNL1        0.1715
     32 C          17.6886   71.0476   -5.3188 C.3     1  UNL1        0.1694
     33 C          18.7393   72.1549   -5.2052 C.3     1  UNL1        0.1761
     34 O          19.0064   69.2370   -2.3105 O.3     1  UNL1       -0.3775
     35 O          17.1097   68.8553   -4.4642 O.3     1  UNL1       -0.3794
     36 O          16.4342   71.5202   -4.8257 O.3     1  UNL1       -0.3794
     37 O          18.8635   72.5627   -3.8435 O.3     1  UNL1       -0.3258
     38 H          19.1837   69.5798   -1.4239 H       1  UNL1        0.2106
     39 H          17.4339   68.1236   -3.9241 H       1  UNL1        0.2105
     40 H          15.8069   70.7904   -4.9112 H       1  UNL1        0.2105
     41 C          18.3108   73.3516   -6.0573 C.3     1  UNL1        0.1693
     42 O          18.1579   72.9375   -7.4160 O.3     1  UNL1       -0.3794
     43 H          17.8873   73.7186   -7.9180 H       1  UNL1        0.2105
@<TRIPOS>BOND
     1    15    16   ar
     2    15    20   ar
     3    15     6    1
     4    16    17   ar
     5    16    21    2
     6    17    18   ar
     7    17    23    1
     8    18    19   ar
     9    18    22    2
    10    19    20   ar
    11     6     7    1
    12     6    11    1
    13     7     8    1
    14     7     9    1
    15     8    13    1
    16     9    10    1
    17     9    12    1
    18    10    11    1
    19    10     5    1
    20    12    14    1
    21     5     4    1
    22     4     1    1
    23     1     2    2
    24     1     3    1
    25     1    24    1
    26    24    25    1
    27    25    26    2
    28    25    27    1
    29    25    28    1
    30    28    29    1
    31    29    30    1
    32    29    37    1
    33    30    31    1
    34    30    34    1
    35    31    32    1
    36    31    35    1
    37    32    33    1
    38    32    36    1
    39    33    41    1
    40    33    37    1
    41    41    42    1
    42    34    38    1
    43    35    39    1
    44    36    40    1
    45    42    43    1
@<TRIPOS>MOLECULE
GDU
 43 45 0 0 0
SMALL
GASTEIGER

@<TRIPOS>ATOM
      1 P          22.8638   72.3387   -2.9182 P.3     1  UNL1        0.2189
      2 O          23.2691   71.0310   -3.4796 O.2     1  UNL1       -0.5170
      3 O          24.0444   73.4097   -3.1464 O.3     1  UNL1       -0.4371
      4 O          21.5274   72.8482   -3.6539 O.3     1  UNL1       -0.3112
      5 C          21.9039   73.9531   -4.4772 C.3     1  UNL1        0.1811
      6 C          20.1371   73.5192   -7.5784 C.3     1  UNL1        0.2383
      7 C          20.7588   74.9356   -7.6797 C.3     1  UNL1        0.1895
      8 O          21.0614   75.2638   -9.0376 O.3     1  UNL1       -0.3779
      9 C          22.0571   74.7810   -6.8456 C.3     1  UNL1        0.1713
     10 C          21.7833   73.5583   -5.9502 C.3     1  UNL1        0.1764
     11 O          20.4447   73.1121   -6.2282 O.3     1  UNL1       -0.3308
     12 O          23.1757   74.5418   -7.7020 O.3     1  UNL1       -0.3794
     13 H          21.4430   76.1528   -9.0313 H       1  UNL1        0.2106
     14 H          23.2590   75.3150   -8.2764 H       1  UNL1        0.2105
     15 N          18.6887   73.5735   -7.7835 N.ar    1  UNL1       -0.2551
     16 C          18.1769   73.3093   -8.9987 C.ar    1  UNL1        0.3323
     17 N          16.8486   73.3488   -9.2131 N.ar    1  UNL1       -0.2743
     18 C          16.0071   73.6652   -8.2101 C.ar    1  UNL1        0.2626
     19 C          16.5324   73.9515   -6.9262 C.ar    1  UNL1        0.0795
     20 C          17.8682   73.9005   -6.7376 C.ar    1  UNL1        0.0869
     21 O          18.9236   73.0219   -9.9130 O.2     1  UNL1       -0.2464
     22 O          14.8050   73.7059   -8.4044 O.2     1  UNL1       -0.2670
     23 H          16.4963   73.1511  -10.0954 H       1  UNL1        0.1734
     24 O          22.5824   72.1804   -1.3408 O.3     1  UNL1       -0.2703
     25 P          21.4382   71.0600   -1.1810 P.3     1  UNL1        0.2208
     26 O          22.0020   69.7302   -1.5019 O.2     1  UNL1       -0.5170
     27 O          20.8950   71.0604    0.3352 O.3     1  UNL1       -0.4371
     28 O          20.2232   71.3853   -2.1851 O.3     1  UNL1       -0.2858
     29 C          19.4825   70.1748   -2.3460 C.3     1  UNL1        0.2704
     30 C          19.4924   69.7639   -3.8192 C.3     1  UNL1        0.1967
     31 C          18.8764   70.8902   -4.6551 C.3     1  UNL1        0.1715
     32 C          17.4956   71.2274   -4.0812 C.3     1  UNL1        0.1694
     33 C          17.6377   71.5295   -2.5874 C.3     1  UNL1        0.1761
     34 O          20.8371   69.5322   -4.2425 O.3     1  UNL1       -0.3775
     35 O          18.7436   70.4631   -6.0125 O.3     1  UNL1       -0.3794
     36 O          16.6166   70.1173   -4.2677 O.3     1  UNL1       -0.3794
     37 O          18.1408   70.3792   -1.9094 O.3     1  UNL1       -0.3258
     38 H          21.1864   68.8228   -3.6861 H       1  UNL1        0.2106
     39 H          19.6314   70.2510   -6.3273 H       1  UNL1        0.2105
     40 H          16.5620   69.9602   -5.2193 H       1  UNL1        0.2105
     41 C          16.2694   71.9011   -2.0115 C.3     1  UNL1        0.1693
     42 O          15.2593   71.6605   -2.9928 O.3     1  UNL1       -0.3794
     43 H          14.4146   71.9061   -2.5910 H       1  UNL1        0.2105
@<TRIPOS>BOND
     1    15    16   ar
     2    15    20   ar
     3    15     6    1
     4    16    17   ar
     5    16    21    2
     6    17    18   ar
     7    17    23    1
     8    18    19   ar
     9    18    22    2
    10    19    20   ar
    11     6     7    1
    12     6    11    1
    13     7     8    1
    14     7     9    1
    15     8    13    1
    16     9    10    1
    17     9    12    1
    18    10    11    1
    19    10     5    1
    20    12    14    1
    21     5     4    1
    22     4     1    1
    23     1     2    2
    24     1     3    1
    25     1    24    1
    26    24    25    1
    27    25    26    2
    28    25    27    1
    29    25    28    1
    30    28    29    1
    31    29    30    1
    32    29    37    1
    33    30    31    1
    34    30    34    1
    35    31    32    1
    36    31    35    1
    37    32    33    1
    38    32    36    1
    39    33    41    1
    40    33    37    1
    41    41    42    1
    42    34    38    1
    43    35    39    1
    44    36    40    1
    45    42    43    1
@<TRIPOS>MOLECULE
GDU
 43 45 0 0 0
SMALL
GASTEIGER

@<TRIPOS>ATOM
      1 P          20.8207   70.5119   -2.2472 P.3     1  UNL1        0.2189
      2 O          21.3136   69.5629   -3.2698 O.2     1  UNL1       -0.5170
      3 O          20.9512   69.8438   -0.7879 O.3     1  UNL1       -0.4371
      4 O          21.6953   71.8606   -2.3000 O.3     1  UNL1       -0.3112
      5 C          22.2962   72.0149   -1.0133 C.3     1  UNL1        0.1811
      6 C          22.1237   74.5792    1.5010 C.3     1  UNL1        0.2383
      7 C          23.5871   74.6307    0.9925 C.3     1  UNL1        0.1895
      8 O          24.1112   75.9577    1.0807 O.3     1  UNL1       -0.3779
      9 C          23.4322   74.1945   -0.4877 C.3     1  UNL1        0.1713
     10 C          22.0861   73.4471   -0.5187 C.3     1  UNL1        0.1764
     11 O          21.5721   73.4297    0.8243 O.3     1  UNL1       -0.3308
     12 O          23.3972   75.3377   -1.3444 O.3     1  UNL1       -0.3794
     13 H          25.0199   75.9211    0.7510 H       1  UNL1        0.2106
     14 H          24.2422   75.7948   -1.2362 H       1  UNL1        0.2105
     15 N          22.0860   74.3906    2.9522 N.ar    1  UNL1       -0.2551
     16 C          22.4135   73.1971    3.4783 C.ar    1  UNL1        0.3323
     17 N          22.3905   72.9984    4.8094 N.ar    1  UNL1       -0.2743
     18 C          22.0273   73.9950    5.6395 C.ar    1  UNL1        0.2626
     19 C          21.6742   75.2558    5.0992 C.ar    1  UNL1        0.0795
     20 C          21.7100   75.4292    3.7608 C.ar    1  UNL1        0.0869
     21 O          22.7436   72.2888    2.7421 O.2     1  UNL1       -0.2464
     22 O          22.0016   73.8147    6.8442 O.2     1  UNL1       -0.2670
     23 H          22.6340   72.1319    5.1721 H       1  UNL1        0.1734
     24 O          19.2763   70.8605   -2.5400 O.3     1  UNL1       -0.2703
     25 P          18.7558   69.7956   -3.6286 P.3     1  UNL1        0.2208
     26 O          19.2312   68.4433   -3.2619 O.2     1  UNL1       -0.5170
     27 O          17.1456   69.8068   -3.6627 O.3     1  UNL1       -0.4371
     28 O          19.3249   70.1899   -5.0814 O.3     1  UNL1       -0.2858
     29 C          18.6920   71.4140   -5.4567 C.3     1  UNL1        0.2704
     30 C          17.9907   71.2324   -6.8038 C.3     1  UNL1        0.1967
     31 C          19.0260   70.8151   -7.8527 C.3     1  UNL1        0.1715
     32 C          20.1700   71.8354   -7.8451 C.3     1  UNL1        0.1694
     33 C          20.7077   71.9698   -6.4183 C.3     1  UNL1        0.1761
     34 O          16.9886   70.2205   -6.6891 O.3     1  UNL1       -0.3775
     35 O          18.4154   70.7844   -9.1444 O.3     1  UNL1       -0.3794
     36 O          19.6854   73.0998   -8.2994 O.3     1  UNL1       -0.3794
     37 O          19.6735   72.4432   -5.5568 O.3     1  UNL1       -0.3258
     38 H          16.3642   70.5213   -6.0150 H       1  UNL1        0.2106
     39 H          17.6970   70.1408   -9.0992 H       1  UNL1        0.2105
     40 H          19.3526   72.9662   -9.1964 H       1  UNL1        0.2105
     41 C          21.8734   72.9612   -6.4057 C.3     1  UNL1        0.1693
     42 O          22.7494   72.6790   -7.4984 O.3     1  UNL1       -0.3794
     43 H          23.4681   73.3246   -7.4549 H       1  UNL1        0.2105
@<TRIPOS>BOND
     1    15    16   ar
     2    15    20   ar
     3    15     6    1
     4    16    17   ar
     5    16    21    2
     6    17    18   ar
     7    17    23    1
     8    18    19   ar
     9    18    22    2
    10    19    20   ar
    11     6     7    1
    12     6    11    1
    13     7     8    1
    14     7     9    1
    15     8    13    1
    16     9    10    1
    17     9    12    1
    18    10    11    1
    19    10     5    1
    20    12    14    1
    21     5     4    1
    22     4     1    1
    23     1     2    2
    24     1     3    1
    25     1    24    1
    26    24    25    1
    27    25    26    2
    28    25    27    1
    29    25    28    1
    30    28    29    1
    31    29    30    1
    32    29    37    1
    33    30    31    1
    34    30    34    1
    35    31    32    1
    36    31    35    1
    37    32    33    1
    38    32    36    1
    39    33    41    1
    40    33    37    1
    41    41    42    1
    42    34    38    1
    43    35    39    1
    44    36    40    1
    45    42    43    1
@<TRIPOS>MOLECULE
GDU
 43 45 0 0 0
SMALL
GASTEIGER

@<TRIPOS>ATOM
      1 P          18.5379   69.9396   -3.4068 P.3     1  UNL1        0.2189
      2 O          19.0564   69.0248   -2.3658 O.2     1  UNL1       -0.5170
      3 O          17.3705   70.8563   -2.7825 O.3     1  UNL1       -0.4371
      4 O          19.7305   70.8784   -3.9392 O.3     1  UNL1       -0.3112
      5 C          19.8242   71.9807   -3.0355 C.3     1  UNL1        0.1811
      6 C          22.5193   72.4112   -0.6949 C.3     1  UNL1        0.2383
      7 C          22.4905   70.8876   -0.9792 C.3     1  UNL1        0.1895
      8 O          23.8000   70.3243   -0.8735 O.3     1  UNL1       -0.3779
      9 C          21.9846   70.8401   -2.4445 C.3     1  UNL1        0.1713
     10 C          21.2869   72.1983   -2.6438 C.3     1  UNL1        0.1764
     11 O          21.3577   72.9064   -1.3941 O.3     1  UNL1       -0.3308
     12 O          23.0826   70.6968   -3.3477 O.3     1  UNL1       -0.3794
     13 H          23.7129   69.3792   -1.0606 H       1  UNL1        0.2106
     14 H          23.5132   69.8579   -3.1344 H       1  UNL1        0.2105
     15 N          22.4073   72.6723    0.7411 N.ar    1  UNL1       -0.2551
     16 C          21.7960   71.7765    1.5361 C.ar    1  UNL1        0.3323
     17 N          21.6828   71.9908    2.8601 N.ar    1  UNL1       -0.2743
     18 C          22.1743   73.1172    3.4111 C.ar    1  UNL1        0.2626
     19 C          22.8157   74.0725    2.5851 C.ar    1  UNL1        0.0795
     20 C          22.9194   73.8306    1.2610 C.ar    1  UNL1        0.0869
     21 O          21.3481   70.7554    1.0535 O.2     1  UNL1       -0.2464
     22 O          22.0681   73.3143    4.6088 O.2     1  UNL1       -0.2670
     23 H          21.2423   71.3314    3.4196 H       1  UNL1        0.1734
     24 O          17.9448   69.0774   -4.6305 O.3     1  UNL1       -0.2703
     25 P          17.2398   70.1178   -5.6358 P.3     1  UNL1        0.2208
     26 O          16.2473   69.4032   -6.4686 O.2     1  UNL1       -0.5170
     27 O          16.4979   71.2668   -4.7851 O.3     1  UNL1       -0.4371
     28 O          18.3539   70.7886   -6.5839 O.3     1  UNL1       -0.2858
     29 C          17.9523   70.5448   -7.9326 C.3     1  UNL1        0.2704
     30 C          19.1714   70.6378   -8.8515 C.3     1  UNL1        0.1967
     31 C          19.7930   72.0313   -8.7157 C.3     1  UNL1        0.1715
     32 C          18.7042   73.0802   -8.9683 C.3     1  UNL1        0.1694
     33 C          17.5204   72.8028   -8.0384 C.3     1  UNL1        0.1761
     34 O          20.1296   69.6462   -8.4775 O.3     1  UNL1       -0.3775
     35 O          20.8422   72.1845   -9.6740 O.3     1  UNL1       -0.3794
     36 O          18.2764   73.0068  -10.3291 O.3     1  UNL1       -0.3794
     37 O          16.9796   71.5127   -8.3193 O.3     1  UNL1       -0.3258
     38 H          19.6940   68.7881   -8.5711 H       1  UNL1        0.2106
     39 H          21.4958   71.4994   -9.4852 H       1  UNL1        0.2105
     40 H          19.0530   73.1817  -10.8764 H       1  UNL1        0.2105
     41 C          16.4413   73.8654   -8.2584 C.3     1  UNL1        0.1693
     42 O          15.4655   73.3691   -9.1762 O.3     1  UNL1       -0.3794
     43 H          14.8048   74.0667   -9.2867 H       1  UNL1        0.2105
@<TRIPOS>BOND
     1    15    16   ar
     2    15    20   ar
     3    15     6    1
     4    16    17   ar
     5    16    21    2
     6    17    18   ar
     7    17    23    1
     8    18    19   ar
     9    18    22    2
    10    19    20   ar
    11     6     7    1
    12     6    11    1
    13     7     8    1
    14     7     9    1
    15     8    13    1
    16     9    10    1
    17     9    12    1
    18    10    11    1
    19    10     5    1
    20    12    14    1
    21     5     4    1
    22     4     1    1
    23     1     2    2
    24     1     3    1
    25     1    24    1
    26    24    25    1
    27    25    26    2
    28    25    27    1
    29    25    28    1
    30    28    29    1
    31    29    30    1
    32    29    37    1
    33    30    31    1
    34    30    34    1
    35    31    32    1
    36    31    35    1
    37    32    33    1
    38    32    36    1
    39    33    41    1
    40    33    37    1
    41    41    42    1
    42    34    38    1
    43    35    39    1
    44    36    40    1
    45    42    43    1
@<TRIPOS>MOLECULE
GDU
 43 45 0 0 0
SMALL
GASTEIGER

@<TRIPOS>ATOM
      1 P          20.8248   70.4471   -2.4882 P.3     1  UNL1        0.2189
      2 O          21.6107   69.5775   -3.3914 O.2     1  UNL1       -0.5170
      3 O          19.7003   69.5688   -1.7418 O.3     1  UNL1       -0.4371
      4 O          21.8019   71.1088   -1.3952 O.3     1  UNL1       -0.3112
      5 C          20.9907   71.4579   -0.2725 C.3     1  UNL1        0.1811
      6 C          21.6962   74.2034    1.9392 C.3     1  UNL1        0.2383
      7 C          23.0744   73.8212    1.3415 C.3     1  UNL1        0.1895
      8 O          23.9243   74.9666    1.2465 O.3     1  UNL1       -0.3779
      9 C          22.6850   73.3031   -0.0675 C.3     1  UNL1        0.1713
     10 C          21.1957   72.9352    0.0674 C.3     1  UNL1        0.1764
     11 O          20.8135   73.1801    1.4320 O.3     1  UNL1       -0.3308
     12 O          22.8672   74.3292   -1.0452 O.3     1  UNL1       -0.3794
     13 H          24.7615   74.6621    0.8694 H       1  UNL1        0.2106
     14 H          23.8068   74.5569   -1.0404 H       1  UNL1        0.2105
     15 N          21.7386   74.1693    3.4020 N.ar    1  UNL1       -0.2551
     16 C          21.8800   72.9928    4.0378 C.ar    1  UNL1        0.3323
     17 N          21.9255   72.9342    5.3818 N.ar    1  UNL1       -0.2743
     18 C          21.8195   74.0588    6.1155 C.ar    1  UNL1        0.2626
     19 C          21.6643   75.3045    5.4595 C.ar    1  UNL1        0.0795
     20 C          21.6260   75.3353    4.1105 C.ar    1  UNL1        0.0869
     21 O          21.9774   71.9700    3.3894 O.2     1  UNL1       -0.2464
     22 O          21.8557   74.0062    7.3322 O.2     1  UNL1       -0.2670
     23 H          22.0323   72.0769    5.8239 H       1  UNL1        0.1734
     24 O          20.1139   71.6085   -3.3474 O.3     1  UNL1       -0.2703
     25 P          18.8706   70.9295   -4.1109 P.3     1  UNL1        0.2208
     26 O          19.2866   69.6223   -4.6651 O.2     1  UNL1       -0.5170
     27 O          17.6585   70.7105   -3.0730 O.3     1  UNL1       -0.4371
     28 O          18.3843   71.8903   -5.3069 O.3     1  UNL1       -0.2858
     29 C          17.4445   71.1448   -6.0820 C.3     1  UNL1        0.2704
     30 C          17.8810   71.1434   -7.5479 C.3     1  UNL1        0.1967
     31 C          17.9650   72.5900   -8.0445 C.3     1  UNL1        0.1715
     32 C          16.6272   73.2832   -7.7630 C.3     1  UNL1        0.1694
     33 C          16.2866   73.1239   -6.2792 C.3     1  UNL1        0.1761
     34 O          19.1613   70.5203   -7.6655 O.3     1  UNL1       -0.3775
     35 O          18.2279   72.6009   -9.4493 O.3     1  UNL1       -0.3794
     36 O          15.6030   72.6869   -8.5600 O.3     1  UNL1       -0.3794
     37 O          16.1542   71.7391   -5.9617 O.3     1  UNL1       -0.3258
     38 H          19.0631   69.6166   -7.3358 H       1  UNL1        0.2106
     39 H          19.0694   72.1458   -9.5800 H       1  UNL1        0.2105
     40 H          15.8618   72.8057   -9.4832 H       1  UNL1        0.2105
     41 C          14.9688   73.8423   -5.9802 C.3     1  UNL1        0.1693
     42 O          15.1969   74.8730   -5.0175 O.3     1  UNL1       -0.3794
     43 H          14.3443   75.3005   -4.8579 H       1  UNL1        0.2105
@<TRIPOS>BOND
     1    15    16   ar
     2    15    20   ar
     3    15     6    1
     4    16    17   ar
     5    16    21    2
     6    17    18   ar
     7    17    23    1
     8    18    19   ar
     9    18    22    2
    10    19    20   ar
    11     6     7    1
    12     6    11    1
    13     7     8    1
    14     7     9    1
    15     8    13    1
    16     9    10    1
    17     9    12    1
    18    10    11    1
    19    10     5    1
    20    12    14    1
    21     5     4    1
    22     4     1    1
    23     1     2    2
    24     1     3    1
    25     1    24    1
    26    24    25    1
    27    25    26    2
    28    25    27    1
    29    25    28    1
    30    28    29    1
    31    29    30    1
    32    29    37    1
    33    30    31    1
    34    30    34    1
    35    31    32    1
    36    31    35    1
    37    32    33    1
    38    32    36    1
    39    33    41    1
    40    33    37    1
    41    41    42    1
    42    34    38    1
    43    35    39    1
    44    36    40    1
    45    42    43    1
@<TRIPOS>MOLECULE
GDU
 43 45 0 0 0
SMALL
GASTEIGER

@<TRIPOS>ATOM
      1 P          22.7614   72.0707   -3.2887 P.3     1  UNL1        0.2189
      2 O          23.8187   73.1059   -3.2916 O.2     1  UNL1       -0.5170
      3 O          23.4379   70.6131   -3.1853 O.3     1  UNL1       -0.4371
      4 O          21.7878   72.3010   -2.0293 O.3     1  UNL1       -0.3112
      5 C          22.4195   73.2685   -1.1894 C.3     1  UNL1        0.1811
      6 C          22.6852   73.3049    2.3960 C.3     1  UNL1        0.2383
      7 C          21.2491   72.7922    2.1175 C.3     1  UNL1        0.1895
      8 O          20.8198   71.8950    3.1441 O.3     1  UNL1       -0.3779
      9 C          21.4262   72.0462    0.7694 C.3     1  UNL1        0.1713
     10 C          22.7147   72.6458    0.1763 C.3     1  UNL1        0.1764
     11 O          23.1764   73.6596    1.0859 O.3     1  UNL1       -0.3308
     12 O          21.5755   70.6425    0.9911 O.3     1  UNL1       -0.3794
     13 H          19.9236   71.6143    2.9123 H       1  UNL1        0.2106
     14 H          20.7625   70.3381    1.4166 H       1  UNL1        0.2105
     15 N          22.6558   74.4782    3.2709 N.ar    1  UNL1       -0.2551
     16 C          23.6821   74.7119    4.1078 C.ar    1  UNL1        0.3323
     17 N          23.6814   75.7853    4.9200 N.ar    1  UNL1       -0.2743
     18 C          22.6419   76.6418    4.9140 C.ar    1  UNL1        0.2626
     19 C          21.5513   76.4052    4.0418 C.ar    1  UNL1        0.0795
     20 C          21.5795   75.3234    3.2347 C.ar    1  UNL1        0.0869
     21 O          24.6270   73.9483    4.1241 O.2     1  UNL1       -0.2464
     22 O          22.6382   77.6111    5.6523 O.2     1  UNL1       -0.2670
     23 H          24.4324   75.9408    5.5146 H       1  UNL1        0.1734
     24 O          21.9104   72.1704   -4.6518 O.3     1  UNL1       -0.2703
     25 P          20.3849   71.8215   -4.2762 P.3     1  UNL1        0.2208
     26 O          20.3573   70.6760   -3.3402 O.2     1  UNL1       -0.5170
     27 O          19.6983   73.1006   -3.5784 O.3     1  UNL1       -0.4371
     28 O          19.5748   71.4423   -5.6141 O.3     1  UNL1       -0.2858
     29 C          18.3637   72.1990   -5.5944 C.3     1  UNL1        0.2704
     30 C          17.1681   71.2455   -5.5658 C.3     1  UNL1        0.1967
     31 C          17.2213   70.3419   -6.8015 C.3     1  UNL1        0.1715
     32 C          17.3216   71.2251   -8.0504 C.3     1  UNL1        0.1694
     33 C          18.5077   72.1794   -7.8912 C.3     1  UNL1        0.1761
     34 O          17.2221   70.4455   -4.3833 O.3     1  UNL1       -0.3775
     35 O          16.0353   69.5472   -6.8666 O.3     1  UNL1       -0.3794
     36 O          16.1158   71.9752   -8.2033 O.3     1  UNL1       -0.3794
     37 O          18.2998   73.0207   -6.7577 O.3     1  UNL1       -0.3258
     38 H          17.1934   71.0545   -3.6329 H       1  UNL1        0.2106
     39 H          16.0076   69.0191   -6.0587 H       1  UNL1        0.2105
     40 H          15.3977   71.3353   -8.2940 H       1  UNL1        0.2105
     41 C          18.6377   73.0428   -9.1481 C.3     1  UNL1        0.1693
     42 O          18.3553   72.2487  -10.3017 O.3     1  UNL1       -0.3794
     43 H          18.4472   72.8288  -11.0700 H       1  UNL1        0.2105
@<TRIPOS>BOND
     1    15    16   ar
     2    15    20   ar
     3    15     6    1
     4    16    17   ar
     5    16    21    2
     6    17    18   ar
     7    17    23    1
     8    18    19   ar
     9    18    22    2
    10    19    20   ar
    11     6     7    1
    12     6    11    1
    13     7     8    1
    14     7     9    1
    15     8    13    1
    16     9    10    1
    17     9    12    1
    18    10    11    1
    19    10     5    1
    20    12    14    1
    21     5     4    1
    22     4     1    1
    23     1     2    2
    24     1     3    1
    25     1    24    1
    26    24    25    1
    27    25    26    2
    28    25    27    1
    29    25    28    1
    30    28    29    1
    31    29    30    1
    32    29    37    1
    33    30    31    1
    34    30    34    1
    35    31    32    1
    36    31    35    1
    37    32    33    1
    38    32    36    1
    39    33    41    1
    40    33    37    1
    41    41    42    1
    42    34    38    1
    43    35    39    1
    44    36    40    1
    45    42    43    1
@<TRIPOS>MOLECULE
GDU
 43 45 0 0 0
SMALL
GASTEIGER

@<TRIPOS>ATOM
      1 P          22.4760   71.9960   -3.2653 P.3     1  UNL1        0.2189
      2 O          23.2828   73.1781   -3.6411 O.2     1  UNL1       -0.5170
      3 O          23.4206   70.6926   -3.2242 O.3     1  UNL1       -0.4371
      4 O          21.8224   72.2310   -1.8146 O.3     1  UNL1       -0.3112
      5 C          22.6763   73.1403   -1.1184 C.3     1  UNL1        0.1811
      6 C          22.5279   73.4719    2.4586 C.3     1  UNL1        0.2383
      7 C          21.1913   72.7865    2.0756 C.3     1  UNL1        0.1895
      8 O          20.7402   71.9267    3.1246 O.3     1  UNL1       -0.3779
      9 C          21.5942   71.9660    0.8227 C.3     1  UNL1        0.1713
     10 C          22.8752   72.6567    0.3192 C.3     1  UNL1        0.1764
     11 O          23.1267   73.7795    1.1818 O.3     1  UNL1       -0.3308
     12 O          21.8572   70.6073    1.1786 O.3     1  UNL1       -0.3794
     13 H          19.9087   71.5335    2.8248 H       1  UNL1        0.2106
     14 H          21.0357   70.2486    1.5408 H       1  UNL1        0.2105
     15 N          22.2819   74.6968    3.2215 N.ar    1  UNL1       -0.2551
     16 C          22.2905   74.6583    4.5656 C.ar    1  UNL1        0.3323
     17 N          22.0708   75.7709    5.2907 N.ar    1  UNL1       -0.2743
     18 C          21.8275   76.9451    4.6774 C.ar    1  UNL1        0.2626
     19 C          21.8096   76.9996    3.2622 C.ar    1  UNL1        0.0795
     20 C          22.0374   75.8697    2.5593 C.ar    1  UNL1        0.0869
     21 O          22.5090   73.6064    5.1329 O.2     1  UNL1       -0.2464
     22 O          21.6237   77.9518    5.3329 O.2     1  UNL1       -0.2670
     23 H          22.0849   75.7256    6.2600 H       1  UNL1        0.1734
     24 O          21.3085   71.7768   -4.3522 O.3     1  UNL1       -0.2703
     25 P          21.4087   72.9967   -5.3971 P.3     1  UNL1        0.2208
     26 O          21.3425   74.2803   -4.6643 O.2     1  UNL1       -0.5170
     27 O          22.8049   72.9062   -6.1949 O.3     1  UNL1       -0.4371
     28 O          20.1881   72.9109   -6.4425 O.3     1  UNL1       -0.2858
     29 C          20.4224   71.7640   -7.2607 C.3     1  UNL1        0.2704
     30 C          20.1952   72.1304   -8.7282 C.3     1  UNL1        0.1967
     31 C          18.7584   72.6329   -8.8999 C.3     1  UNL1        0.1715
     32 C          17.7998   71.5788   -8.3349 C.3     1  UNL1        0.1694
     33 C          18.2078   71.2555   -6.8954 C.3     1  UNL1        0.1761
     34 O          21.1120   73.1565   -9.1127 O.3     1  UNL1       -0.3775
     35 O          18.4848   72.8398  -10.2873 O.3     1  UNL1       -0.3794
     36 O          17.8663   70.3959   -9.1326 O.3     1  UNL1       -0.3794
     37 O          19.5302   70.7197   -6.8788 O.3     1  UNL1       -0.3258
     38 H          22.0010   72.7997   -8.9818 H       1  UNL1        0.2106
     39 H          19.1166   73.4986  -10.6020 H       1  UNL1        0.2105
     40 H          17.6076   70.6477  -10.0287 H       1  UNL1        0.2105
     41 C          17.2358   70.2286   -6.3100 C.3     1  UNL1        0.1693
     42 O          15.9999   70.2824   -7.0246 O.3     1  UNL1       -0.3794
     43 H          15.4172   69.6214   -6.6261 H       1  UNL1        0.2105
@<TRIPOS>BOND
     1    15    16   ar
     2    15    20   ar
     3    15     6    1
     4    16    17   ar
     5    16    21    2
     6    17    18   ar
     7    17    23    1
     8    18    19   ar
     9    18    22    2
    10    19    20   ar
    11     6     7    1
    12     6    11    1
    13     7     8    1
    14     7     9    1
    15     8    13    1
    16     9    10    1
    17     9    12    1
    18    10    11    1
    19    10     5    1
    20    12    14    1
    21     5     4    1
    22     4     1    1
    23     1     2    2
    24     1     3    1
    25     1    24    1
    26    24    25    1
    27    25    26    2
    28    25    27    1
    29    25    28    1
    30    28    29    1
    31    29    30    1
    32    29    37    1
    33    30    31    1
    34    30    34    1
    35    31    32    1
    36    31    35    1
    37    32    33    1
    38    32    36    1
    39    33    41    1
    40    33    37    1
    41    41    42    1
    42    34    38    1
    43    35    39    1
    44    36    40    1
    45    42    43    1
