@<TRIPOS>MOLECULE
GDU
 43 45 0 0 0
SMALL
GASTEIGER

@<TRIPOS>ATOM
      1 P          20.5803   71.4026   -3.0407 P.3     1  UNL1        0.2189
      2 O          21.0618   71.4142   -4.4398 O.2     1  UNL1       -0.5170
      3 O          20.1540   72.8938   -2.6076 O.3     1  UNL1       -0.4371
      4 O          19.3097   70.4242   -2.9182 O.3     1  UNL1       -0.3112
      5 C          18.1967   71.2366   -2.5414 C.3     1  UNL1        0.1811
      6 C          16.7945   70.5601   -5.7823 C.3     1  UNL1        0.2383
      7 C          16.9023   69.1690   -5.1069 C.3     1  UNL1        0.1895
      8 O          15.8678   68.2969   -5.5677 O.3     1  UNL1       -0.3779
      9 C          16.7043   69.5189   -3.6090 C.3     1  UNL1        0.1713
     10 C          17.0469   71.0180   -3.5264 C.3     1  UNL1        0.1764
     11 O          17.4435   71.4423   -4.8421 O.3     1  UNL1       -0.3308
     12 O          15.3502   69.2860   -3.2163 O.3     1  UNL1       -0.3794
     13 H          15.9911   67.4527   -5.1118 H       1  UNL1        0.2106
     14 H          15.1792   68.3433   -3.3462 H       1  UNL1        0.2105
     15 N          17.4970   70.5682   -7.0666 N.ar    1  UNL1       -0.2551
     16 C          16.7929   70.5445   -8.2120 C.ar    1  UNL1        0.3323
     17 N          17.4143   70.5548   -9.4060 N.ar    1  UNL1       -0.2743
     18 C          18.7594   70.5792   -9.4723 C.ar    1  UNL1        0.2626
     19 C          19.5142   70.5986   -8.2739 C.ar    1  UNL1        0.0795
     20 C          18.8656   70.5919   -7.0900 C.ar    1  UNL1        0.0869
     21 O          15.5790   70.5228   -8.1680 O.2     1  UNL1       -0.2464
     22 O          19.3228   70.5837  -10.5526 O.2     1  UNL1       -0.2670
     23 H          16.8903   70.5417  -10.2226 H       1  UNL1        0.1734
     24 O          21.7568   70.8801   -2.0736 O.3     1  UNL1       -0.2703
     25 P          23.0681   71.7445   -2.4249 P.3     1  UNL1        0.2208
     26 O          24.0716   70.8750   -3.0775 O.2     1  UNL1       -0.5170
     27 O          22.6683   72.9442   -3.4224 O.3     1  UNL1       -0.4371
     28 O          23.6866   72.3574   -1.0714 O.3     1  UNL1       -0.2858
     29 C          22.6913   72.2122   -0.0574 C.3     1  UNL1        0.2704
     30 C          22.2073   73.5947    0.3825 C.3     1  UNL1        0.1967
     31 C          23.4015   74.3973    0.9079 C.3     1  UNL1        0.1715
     32 C          24.1040   73.5758    1.9948 C.3     1  UNL1        0.1694
     33 C          24.4463   72.1943    1.4314 C.3     1  UNL1        0.1761
     34 O          21.6244   74.2744   -0.7308 O.3     1  UNL1       -0.3775
     35 O          22.9440   75.6344    1.4581 O.3     1  UNL1       -0.3794
     36 O          23.2387   73.4363    3.1225 O.3     1  UNL1       -0.3794
     37 O          23.2477   71.5171    1.0561 O.3     1  UNL1       -0.3258
     38 H          20.8835   73.7314   -1.0325 H       1  UNL1        0.2106
     39 H          22.4999   76.1106    0.7452 H       1  UNL1        0.2105
     40 H          23.0459   74.3283    3.4394 H       1  UNL1        0.2105
     41 C          25.1790   71.3776    2.4982 C.3     1  UNL1        0.1693
     42 O          24.9183   69.9877    2.2951 O.3     1  UNL1       -0.3794
     43 H          25.3975   69.5093    2.9857 H       1  UNL1        0.2105
@<TRIPOS>BOND
     1    15    16   ar
     2    15    20   ar
     3    15     6    1
     4    16    17   ar
     5    16    21    2
     6    17    18   ar
     7    17    23    1
     8    18    19   ar
     9    18    22    2
    10    19    20   ar
    11     6     7    1
    12     6    11    1
    13     7     8    1
    14     7     9    1
    15     8    13    1
    16     9    10    1
    17     9    12    1
    18    10    11    1
    19    10     5    1
    20    12    14    1
    21     5     4    1
    22     4     1    1
    23     1     2    2
    24     1     3    1
    25     1    24    1
    26    24    25    1
    27    25    26    2
    28    25    27    1
    29    25    28    1
    30    28    29    1
    31    29    30    1
    32    29    37    1
    33    30    31    1
    34    30    34    1
    35    31    32    1
    36    31    35    1
    37    32    33    1
    38    32    36    1
    39    33    41    1
    40    33    37    1
    41    41    42    1
    42    34    38    1
    43    35    39    1
    44    36    40    1
    45    42    43    1
@<TRIPOS>MOLECULE
GDU
 43 45 0 0 0
SMALL
GASTEIGER

@<TRIPOS>ATOM
      1 P          21.1106   71.5934   -2.1730 P.3     1  UNL1        0.2189
      2 O          22.3407   70.8634   -2.5518 O.2     1  UNL1       -0.5170
      3 O          21.4217   73.1721   -2.1091 O.3     1  UNL1       -0.4371
      4 O          19.9636   71.3163   -3.2659 O.3     1  UNL1       -0.3112
      5 C          18.8489   70.7630   -2.5647 C.3     1  UNL1        0.1811
      6 C          17.1269   70.5394   -5.7130 C.3     1  UNL1        0.2383
      7 C          17.0551   69.1059   -5.1276 C.3     1  UNL1        0.1895
      8 O          15.8622   68.4415   -5.5506 O.3     1  UNL1       -0.3779
      9 C          17.0244   69.3794   -3.6014 C.3     1  UNL1        0.1713
     10 C          17.6113   70.7964   -3.4632 C.3     1  UNL1        0.1764
     11 O          17.9763   71.2418   -4.7810 O.3     1  UNL1       -0.3308
     12 O          15.6822   69.3367   -3.1131 O.3     1  UNL1       -0.3794
     13 H          15.8790   67.5592   -5.1542 H       1  UNL1        0.2106
     14 H          15.3512   68.4440   -3.2811 H       1  UNL1        0.2105
     15 N          17.7276   70.5243   -7.0479 N.ar    1  UNL1       -0.2551
     16 C          16.9384   70.4383   -8.1333 C.ar    1  UNL1        0.3323
     17 N          17.4652   70.4260   -9.3720 N.ar    1  UNL1       -0.2743
     18 C          18.7995   70.4903   -9.5441 C.ar    1  UNL1        0.2626
     19 C          19.6434   70.5755   -8.4098 C.ar    1  UNL1        0.0795
     20 C          19.0886   70.5902   -7.1791 C.ar    1  UNL1        0.0869
     21 O          15.7329   70.3801   -7.9938 O.2     1  UNL1       -0.2464
     22 O          19.2774   70.4745  -10.6648 O.2     1  UNL1       -0.2670
     23 H          16.8804   70.3678  -10.1443 H       1  UNL1        0.1734
     24 O          20.6107   71.0875   -0.7285 O.3     1  UNL1       -0.2703
     25 P          21.8999   71.0790    0.2347 P.3     1  UNL1        0.2208
     26 O          21.8453   69.8956    1.1211 O.2     1  UNL1       -0.5170
     27 O          23.2377   71.0173   -0.6601 O.3     1  UNL1       -0.4371
     28 O          21.9137   72.4186    1.1266 O.3     1  UNL1       -0.2858
     29 C          22.3034   72.0348    2.4459 C.3     1  UNL1        0.2704
     30 C          21.4547   72.7924    3.4681 C.3     1  UNL1        0.1967
     31 C          21.6518   74.2975    3.2622 C.3     1  UNL1        0.1715
     32 C          23.1529   74.6054    3.3043 C.3     1  UNL1        0.1694
     33 C          23.8730   73.7108    2.2922 C.3     1  UNL1        0.1761
     34 O          20.0771   72.4595    3.2873 O.3     1  UNL1       -0.3775
     35 O          20.9826   75.0159    4.3008 O.3     1  UNL1       -0.3794
     36 O          23.6561   74.3515    4.6166 O.3     1  UNL1       -0.3794
     37 O          23.6824   72.3402    2.6400 O.3     1  UNL1       -0.3258
     38 H          20.0013   71.5046    3.4188 H       1  UNL1        0.2106
     39 H          20.0472   74.7834    4.2440 H       1  UNL1        0.2105
     40 H          23.1715   74.9307    5.2191 H       1  UNL1        0.2105
     41 C          25.3687   74.0345    2.3017 C.3     1  UNL1        0.1693
     42 O          26.1145   72.8306    2.4902 O.3     1  UNL1       -0.3794
     43 H          27.0495   73.0776    2.4894 H       1  UNL1        0.2105
@<TRIPOS>BOND
     1    15    16   ar
     2    15    20   ar
     3    15     6    1
     4    16    17   ar
     5    16    21    2
     6    17    18   ar
     7    17    23    1
     8    18    19   ar
     9    18    22    2
    10    19    20   ar
    11     6     7    1
    12     6    11    1
    13     7     8    1
    14     7     9    1
    15     8    13    1
    16     9    10    1
    17     9    12    1
    18    10    11    1
    19    10     5    1
    20    12    14    1
    21     5     4    1
    22     4     1    1
    23     1     2    2
    24     1     3    1
    25     1    24    1
    26    24    25    1
    27    25    26    2
    28    25    27    1
    29    25    28    1
    30    28    29    1
    31    29    30    1
    32    29    37    1
    33    30    31    1
    34    30    34    1
    35    31    32    1
    36    31    35    1
    37    32    33    1
    38    32    36    1
    39    33    41    1
    40    33    37    1
    41    41    42    1
    42    34    38    1
    43    35    39    1
    44    36    40    1
    45    42    43    1
@<TRIPOS>MOLECULE
GDU
 43 45 0 0 0
SMALL
GASTEIGER

@<TRIPOS>ATOM
      1 P          20.8455   71.9321   -1.7226 P.3     1  UNL1        0.2189
      2 O          21.7226   70.8040   -2.1065 O.2     1  UNL1       -0.5170
      3 O          20.9023   73.0680   -2.8626 O.3     1  UNL1       -0.4371
      4 O          19.3337   71.4069   -1.5633 O.3     1  UNL1       -0.3112
      5 C          19.1738   70.3222   -2.4790 C.3     1  UNL1        0.1811
      6 C          17.3045   70.4768   -5.5463 C.3     1  UNL1        0.2383
      7 C          17.1104   69.0228   -5.0453 C.3     1  UNL1        0.1895
      8 O          15.8383   68.5101   -5.4480 O.3     1  UNL1       -0.3779
      9 C          17.1736   69.1985   -3.5056 C.3     1  UNL1        0.1713
     10 C          17.9089   70.5377   -3.3117 C.3     1  UNL1        0.1764
     11 O          18.2610   71.0286   -4.6168 O.3     1  UNL1       -0.3308
     12 O          15.8563   69.2591   -2.9552 O.3     1  UNL1       -0.3794
     13 H          15.7809   67.6068   -5.1066 H       1  UNL1        0.2106
     14 H          15.4281   68.4168   -3.1601 H       1  UNL1        0.2105
     15 N          17.8425   70.4880   -6.9077 N.ar    1  UNL1       -0.2551
     16 C          17.0041   70.4184   -7.9567 C.ar    1  UNL1        0.3323
     17 N          17.4728   70.4305   -9.2185 N.ar    1  UNL1       -0.2743
     18 C          18.7975   70.5030   -9.4512 C.ar    1  UNL1        0.2626
     19 C          19.6929   70.5710   -8.3558 C.ar    1  UNL1        0.0795
     20 C          19.1958   70.5615   -7.1006 C.ar    1  UNL1        0.0869
     21 O          15.8066   70.3531   -7.7625 O.2     1  UNL1       -0.2464
     22 O          19.2229   70.5092  -10.5928 O.2     1  UNL1       -0.2670
     23 H          16.8530   70.3839   -9.9638 H       1  UNL1        0.1734
     24 O          21.3500   72.5512   -0.3245 O.3     1  UNL1       -0.2703
     25 P          22.1594   71.3868    0.4364 P.3     1  UNL1        0.2208
     26 O          21.2682   70.2253    0.6498 O.2     1  UNL1       -0.5170
     27 O          23.4208   70.9374   -0.4586 O.3     1  UNL1       -0.4371
     28 O          22.6793   71.9338    1.8578 O.3     1  UNL1       -0.2858
     29 C          22.4926   73.3498    1.8510 C.3     1  UNL1        0.2704
     30 C          23.8252   74.0376    1.5504 C.3     1  UNL1        0.1967
     31 C          24.8474   73.6320    2.6167 C.3     1  UNL1        0.1715
     32 C          24.2571   73.9296    3.9997 C.3     1  UNL1        0.1694
     33 C          22.8916   73.2477    4.1153 C.3     1  UNL1        0.1761
     34 O          24.2912   73.6356    0.2611 O.3     1  UNL1       -0.3775
     35 O          26.0523   74.3788    2.4355 O.3     1  UNL1       -0.3794
     36 O          24.1072   75.3407    4.1617 O.3     1  UNL1       -0.3794
     37 O          22.0076   73.7695    3.1243 O.3     1  UNL1       -0.3258
     38 H          23.6152   73.9038   -0.3760 H       1  UNL1        0.2106
     39 H          26.3804   74.1706    1.5516 H       1  UNL1        0.2105
     40 H          24.9883   75.7275    4.0757 H       1  UNL1        0.2105
     41 C          22.3084   73.5101    5.5056 C.3     1  UNL1        0.1693
     42 O          21.7506   74.8247    5.5469 O.3     1  UNL1       -0.3794
     43 H          21.3941   74.9497    6.4372 H       1  UNL1        0.2105
@<TRIPOS>BOND
     1    15    16   ar
     2    15    20   ar
     3    15     6    1
     4    16    17   ar
     5    16    21    2
     6    17    18   ar
     7    17    23    1
     8    18    19   ar
     9    18    22    2
    10    19    20   ar
    11     6     7    1
    12     6    11    1
    13     7     8    1
    14     7     9    1
    15     8    13    1
    16     9    10    1
    17     9    12    1
    18    10    11    1
    19    10     5    1
    20    12    14    1
    21     5     4    1
    22     4     1    1
    23     1     2    2
    24     1     3    1
    25     1    24    1
    26    24    25    1
    27    25    26    2
    28    25    27    1
    29    25    28    1
    30    28    29    1
    31    29    30    1
    32    29    37    1
    33    30    31    1
    34    30    34    1
    35    31    32    1
    36    31    35    1
    37    32    33    1
    38    32    36    1
    39    33    41    1
    40    33    37    1
    41    41    42    1
    42    34    38    1
    43    35    39    1
    44    36    40    1
    45    42    43    1
@<TRIPOS>MOLECULE
GDU
 43 45 0 0 0
SMALL
GASTEIGER

@<TRIPOS>ATOM
      1 P          20.4023   71.4755   -2.9535 P.3     1  UNL1        0.2189
      2 O          20.5336   71.7417   -4.4031 O.2     1  UNL1       -0.5170
      3 O          20.3276   72.8725   -2.1561 O.3     1  UNL1       -0.4371
      4 O          19.0612   70.6303   -2.6819 O.3     1  UNL1       -0.3112
      5 C          17.9819   71.5656   -2.6502 C.3     1  UNL1        0.1811
      6 C          16.7717   70.4993   -5.8636 C.3     1  UNL1        0.2383
      7 C          17.0457   69.1818   -5.0943 C.3     1  UNL1        0.1895
      8 O          16.1499   68.1502   -5.5145 O.3     1  UNL1       -0.3779
      9 C          16.7619   69.5971   -3.6273 C.3     1  UNL1        0.1713
     10 C          16.8989   71.1310   -3.6394 C.3     1  UNL1        0.1764
     11 O          17.2711   71.5196   -4.9731 O.3     1  UNL1       -0.3308
     12 O          15.4408   69.2092   -3.2449 O.3     1  UNL1       -0.3794
     13 H          16.3723   67.3613   -5.0005 H       1  UNL1        0.2106
     14 H          15.4008   68.2457   -3.3142 H       1  UNL1        0.2105
     15 N          17.5017   70.5197   -7.1323 N.ar    1  UNL1       -0.2551
     16 C          16.8222   70.5574   -8.2921 C.ar    1  UNL1        0.3323
     17 N          17.4693   70.5804   -9.4722 N.ar    1  UNL1       -0.2743
     18 C          18.8155   70.5559   -9.5102 C.ar    1  UNL1        0.2626
     19 C          19.5443   70.5103   -8.2965 C.ar    1  UNL1        0.0795
     20 C          18.8704   70.4924   -7.1269 C.ar    1  UNL1        0.0869
     21 O          15.6077   70.5805   -8.2738 O.2     1  UNL1       -0.2464
     22 O          19.4020   70.5718  -10.5780 O.2     1  UNL1       -0.2670
     23 H          16.9630   70.6120  -10.2995 H       1  UNL1        0.1734
     24 O          21.6791   70.6367   -2.4450 O.3     1  UNL1       -0.2703
     25 P          22.8789   71.6899   -2.2424 P.3     1  UNL1        0.2208
     26 O          24.1754   70.9814   -2.3202 O.2     1  UNL1       -0.5170
     27 O          22.8100   72.8103   -3.3975 O.3     1  UNL1       -0.4371
     28 O          22.7375   72.3957   -0.8029 O.3     1  UNL1       -0.2858
     29 C          23.2624   71.4816    0.1608 C.3     1  UNL1        0.2704
     30 C          22.1545   71.0760    1.1341 C.3     1  UNL1        0.1967
     31 C          21.6096   72.3322    1.8208 C.3     1  UNL1        0.1715
     32 C          22.7818   73.0953    2.4480 C.3     1  UNL1        0.1694
     33 C          23.8420   73.3496    1.3736 C.3     1  UNL1        0.1761
     34 O          21.1029   70.4258    0.4182 O.3     1  UNL1       -0.3775
     35 O          20.6782   71.9576    2.8380 O.3     1  UNL1       -0.3794
     36 O          23.3445   72.3200    3.5074 O.3     1  UNL1       -0.3794
     37 O          24.3284   72.1051    0.8732 O.3     1  UNL1       -0.3258
     38 H          21.4919   69.6471   -0.0027 H       1  UNL1        0.2106
     39 H          19.9672   71.4719    2.4013 H       1  UNL1        0.2105
     40 H          22.6419   72.1801    4.1555 H       1  UNL1        0.2105
     41 C          25.0020   74.1414    1.9815 C.3     1  UNL1        0.1693
     42 O          25.4562   75.1166    1.0416 O.3     1  UNL1       -0.3794
     43 H          26.1849   75.5930    1.4626 H       1  UNL1        0.2105
@<TRIPOS>BOND
     1    15    16   ar
     2    15    20   ar
     3    15     6    1
     4    16    17   ar
     5    16    21    2
     6    17    18   ar
     7    17    23    1
     8    18    19   ar
     9    18    22    2
    10    19    20   ar
    11     6     7    1
    12     6    11    1
    13     7     8    1
    14     7     9    1
    15     8    13    1
    16     9    10    1
    17     9    12    1
    18    10    11    1
    19    10     5    1
    20    12    14    1
    21     5     4    1
    22     4     1    1
    23     1     2    2
    24     1     3    1
    25     1    24    1
    26    24    25    1
    27    25    26    2
    28    25    27    1
    29    25    28    1
    30    28    29    1
    31    29    30    1
    32    29    37    1
    33    30    31    1
    34    30    34    1
    35    31    32    1
    36    31    35    1
    37    32    33    1
    38    32    36    1
    39    33    41    1
    40    33    37    1
    41    41    42    1
    42    34    38    1
    43    35    39    1
    44    36    40    1
    45    42    43    1
@<TRIPOS>MOLECULE
GDU
 43 45 0 0 0
SMALL
GASTEIGER

@<TRIPOS>ATOM
      1 P          20.3554   71.0883   -1.9463 P.3     1  UNL1        0.2189
      2 O          21.3994   70.3658   -2.7063 O.2     1  UNL1       -0.5170
      3 O          20.3758   72.6459   -2.3544 O.3     1  UNL1       -0.4371
      4 O          18.9133   70.4631   -2.2871 O.3     1  UNL1       -0.3112
      5 C          18.0375   71.5610   -2.5481 C.3     1  UNL1        0.1811
      6 C          16.7895   70.5114   -5.7525 C.3     1  UNL1        0.2383
      7 C          17.0918   69.1899   -5.0008 C.3     1  UNL1        0.1895
      8 O          16.2021   68.1515   -5.4170 O.3     1  UNL1       -0.3779
      9 C          16.8263   69.5873   -3.5254 C.3     1  UNL1        0.1713
     10 C          16.9443   71.1228   -3.5243 C.3     1  UNL1        0.1764
     11 O          17.2905   71.5290   -4.8598 O.3     1  UNL1       -0.3308
     12 O          15.5163   69.1793   -3.1261 O.3     1  UNL1       -0.3794
     13 H          16.4422   67.3604   -4.9146 H       1  UNL1        0.2106
     14 H          15.4869   68.2161   -3.2043 H       1  UNL1        0.2105
     15 N          17.4989   70.5533   -7.0323 N.ar    1  UNL1       -0.2551
     16 C          16.8008   70.5719   -8.1814 C.ar    1  UNL1        0.3323
     17 N          17.4286   70.6139   -9.3714 N.ar    1  UNL1       -0.2743
     18 C          18.7742   70.6281   -9.4301 C.ar    1  UNL1        0.2626
     19 C          19.5227   70.6031   -8.2279 C.ar    1  UNL1        0.0795
     20 C          18.8678   70.5653   -7.0480 C.ar    1  UNL1        0.0869
     21 O          15.5865   70.5599   -8.1443 O.2     1  UNL1       -0.2464
     22 O          19.3434   70.6614  -10.5068 O.2     1  UNL1       -0.2670
     23 H          16.9088   70.6312  -10.1907 H       1  UNL1        0.1734
     24 O          20.6449   70.9445   -0.3689 O.3     1  UNL1       -0.2703
     25 P          20.9166   72.4280    0.1928 P.3     1  UNL1        0.2208
     26 O          20.5270   73.4220   -0.8314 O.2     1  UNL1       -0.5170
     27 O          20.0463   72.6639    1.5274 O.3     1  UNL1       -0.4371
     28 O          22.4799   72.5948    0.5367 O.3     1  UNL1       -0.2858
     29 C          22.5630   73.0038    1.9025 C.3     1  UNL1        0.2704
     30 C          22.9660   74.4777    1.9691 C.3     1  UNL1        0.1967
     31 C          24.3158   74.6577    1.2675 C.3     1  UNL1        0.1715
     32 C          25.3219   73.6780    1.8819 C.3     1  UNL1        0.1694
     33 C          24.7405   72.2634    1.8201 C.3     1  UNL1        0.1761
     34 O          21.9758   75.2746    1.3166 O.3     1  UNL1       -0.3775
     35 O          24.7759   75.9987    1.4484 O.3     1  UNL1       -0.3794
     36 O          25.5707   74.0386    3.2414 O.3     1  UNL1       -0.3794
     37 O          23.5327   72.2059    2.5776 O.3     1  UNL1       -0.3258
     38 H          21.1437   75.1249    1.7858 H       1  UNL1        0.2106
     39 H          24.1090   76.5783    1.0591 H       1  UNL1        0.2105
     40 H          25.9293   74.9356    3.2319 H       1  UNL1        0.2105
     41 C          25.7521   71.2723    2.4002 C.3     1  UNL1        0.1693
     42 O          25.1027   70.0261    2.6577 O.3     1  UNL1       -0.3794
     43 H          25.7731   69.4310    3.0207 H       1  UNL1        0.2105
@<TRIPOS>BOND
     1    15    16   ar
     2    15    20   ar
     3    15     6    1
     4    16    17   ar
     5    16    21    2
     6    17    18   ar
     7    17    23    1
     8    18    19   ar
     9    18    22    2
    10    19    20   ar
    11     6     7    1
    12     6    11    1
    13     7     8    1
    14     7     9    1
    15     8    13    1
    16     9    10    1
    17     9    12    1
    18    10    11    1
    19    10     5    1
    20    12    14    1
    21     5     4    1
    22     4     1    1
    23     1     2    2
    24     1     3    1
    25     1    24    1
    26    24    25    1
    27    25    26    2
    28    25    27    1
    29    25    28    1
    30    28    29    1
    31    29    30    1
    32    29    37    1
    33    30    31    1
    34    30    34    1
    35    31    32    1
    36    31    35    1
    37    32    33    1
    38    32    36    1
    39    33    41    1
    40    33    37    1
    41    41    42    1
    42    34    38    1
    43    35    39    1
    44    36    40    1
    45    42    43    1
@<TRIPOS>MOLECULE
GDU
 43 45 0 0 0
SMALL
GASTEIGER

@<TRIPOS>ATOM
      1 P          23.4792   72.1188   -3.2895 P.3     1  UNL1        0.2189
      2 O          24.2567   72.9286   -4.2534 O.2     1  UNL1       -0.5170
      3 O          24.2519   70.7349   -3.0051 O.3     1  UNL1       -0.4371
      4 O          23.3144   72.9340   -1.9129 O.3     1  UNL1       -0.3112
      5 C          21.9443   72.8193   -1.5255 C.3     1  UNL1        0.1811
      6 C          23.2523   72.0708    1.7389 C.3     1  UNL1        0.2383
      7 C          22.5864   73.4617    1.8961 C.3     1  UNL1        0.1895
      8 O          22.0814   73.6384    3.2216 O.3     1  UNL1       -0.3779
      9 C          21.4274   73.3851    0.8684 C.3     1  UNL1        0.1713
     10 C          21.8597   72.2690   -0.1006 C.3     1  UNL1        0.1764
     11 O          23.1547   71.8087    0.3228 O.3     1  UNL1       -0.3308
     12 O          20.2028   73.0438    1.5208 O.3     1  UNL1       -0.3794
     13 H          21.6821   74.5190    3.2529 H       1  UNL1        0.2106
     14 H          20.0171   73.7496    2.1549 H       1  UNL1        0.2105
     15 N          24.6537   72.1169    2.1595 N.ar    1  UNL1       -0.2551
     16 C          25.3617   70.9770    2.2465 C.ar    1  UNL1        0.3323
     17 N          26.6527   70.9922    2.6273 N.ar    1  UNL1       -0.2743
     18 C          27.2562   72.1554    2.9386 C.ar    1  UNL1        0.2626
     19 C          26.5211   73.3634    2.8571 C.ar    1  UNL1        0.0795
     20 C          25.2290   73.3201    2.4683 C.ar    1  UNL1        0.0869
     21 O          24.8310   69.9201    1.9684 O.2     1  UNL1       -0.2464
     22 O          28.4233   72.1696    3.2880 O.2     1  UNL1       -0.2670
     23 H          27.1498   70.1604    2.6803 H       1  UNL1        0.1734
     24 O          22.0252   71.8032   -3.9051 O.3     1  UNL1       -0.2703
     25 P          21.8755   72.7012   -5.2322 P.3     1  UNL1        0.2208
     26 O          22.0370   74.1296   -4.8819 O.2     1  UNL1       -0.5170
     27 O          23.0085   72.2788   -6.2963 O.3     1  UNL1       -0.4371
     28 O          20.4203   72.4673   -5.8785 O.3     1  UNL1       -0.2858
     29 C          20.3860   71.1183   -6.3463 C.3     1  UNL1        0.2704
     30 C          19.8691   71.0916   -7.7856 C.3     1  UNL1        0.1967
     31 C          18.4697   71.7133   -7.8244 C.3     1  UNL1        0.1715
     32 C          17.5851   70.9935   -6.8002 C.3     1  UNL1        0.1694
     33 C          18.2749   71.0295   -5.4342 C.3     1  UNL1        0.1761
     34 O          20.7505   71.8402   -8.6246 O.3     1  UNL1       -0.3775
     35 O          17.9137   71.5630   -9.1324 O.3     1  UNL1       -0.3794
     36 O          17.3895   69.6382   -7.2065 O.3     1  UNL1       -0.3794
     37 O          19.5265   70.3484   -5.5089 O.3     1  UNL1       -0.3258
     38 H          21.6186   71.4187   -8.5639 H       1  UNL1        0.2106
     39 H          18.5068   72.0191   -9.7427 H       1  UNL1        0.2105
     40 H          16.9592   69.6646   -8.0711 H       1  UNL1        0.2105
     41 C          17.3838   70.3430   -4.3966 C.3     1  UNL1        0.1693
     42 O          16.0201   70.4207   -4.8151 O.3     1  UNL1       -0.3794
     43 H          15.4932   69.9772   -4.1361 H       1  UNL1        0.2105
@<TRIPOS>BOND
     1    15    16   ar
     2    15    20   ar
     3    15     6    1
     4    16    17   ar
     5    16    21    2
     6    17    18   ar
     7    17    23    1
     8    18    19   ar
     9    18    22    2
    10    19    20   ar
    11     6     7    1
    12     6    11    1
    13     7     8    1
    14     7     9    1
    15     8    13    1
    16     9    10    1
    17     9    12    1
    18    10    11    1
    19    10     5    1
    20    12    14    1
    21     5     4    1
    22     4     1    1
    23     1     2    2
    24     1     3    1
    25     1    24    1
    26    24    25    1
    27    25    26    2
    28    25    27    1
    29    25    28    1
    30    28    29    1
    31    29    30    1
    32    29    37    1
    33    30    31    1
    34    30    34    1
    35    31    32    1
    36    31    35    1
    37    32    33    1
    38    32    36    1
    39    33    41    1
    40    33    37    1
    41    41    42    1
    42    34    38    1
    43    35    39    1
    44    36    40    1
    45    42    43    1
@<TRIPOS>MOLECULE
GDU
 43 45 0 0 0
SMALL
GASTEIGER

@<TRIPOS>ATOM
      1 P          20.2819   71.3788   -2.7858 P.3     1  UNL1        0.2189
      2 O          20.3545   71.9592   -4.1449 O.2     1  UNL1       -0.5170
      3 O          20.2007   72.5647   -1.6995 O.3     1  UNL1       -0.4371
      4 O          18.9731   70.4517   -2.6669 O.3     1  UNL1       -0.3112
      5 C          17.8630   71.3272   -2.4628 C.3     1  UNL1        0.1811
      6 C          16.6540   70.5264   -5.7528 C.3     1  UNL1        0.2383
      7 C          16.8223   69.1524   -5.0550 C.3     1  UNL1        0.1895
      8 O          15.8686   68.2093   -5.5492 O.3     1  UNL1       -0.3779
      9 C          16.5352   69.5040   -3.5720 C.3     1  UNL1        0.1713
     10 C          16.7750   71.0232   -3.4943 C.3     1  UNL1        0.1764
     11 O          17.2013   71.4591   -4.7968 O.3     1  UNL1       -0.3308
     12 O          15.1831   69.1863   -3.2360 O.3     1  UNL1       -0.3794
     13 H          16.0264   67.3798   -5.0772 H       1  UNL1        0.2106
     14 H          15.0800   68.2331   -3.3608 H       1  UNL1        0.2105
     15 N          17.4111   70.5675   -7.0050 N.ar    1  UNL1       -0.2551
     16 C          16.7567   70.6281   -8.1782 C.ar    1  UNL1        0.3323
     17 N          17.4290   70.6705   -9.3436 N.ar    1  UNL1       -0.2743
     18 C          18.7756   70.6427   -9.3532 C.ar    1  UNL1        0.2626
     19 C          19.4781   70.5731   -8.1252 C.ar    1  UNL1        0.0795
     20 C          18.7793   70.5360   -6.9708 C.ar    1  UNL1        0.0869
     21 O          15.5421   70.6543   -8.1855 O.2     1  UNL1       -0.2464
     22 O          19.3849   70.6761  -10.4078 O.2     1  UNL1       -0.2670
     23 H          16.9406   70.7184  -10.1808 H       1  UNL1        0.1734
     24 O          21.5968   70.4909   -2.5116 O.3     1  UNL1       -0.2703
     25 P          22.8396   71.5102   -2.4306 P.3     1  UNL1        0.2208
     26 O          23.0187   71.9593   -1.0323 O.2     1  UNL1       -0.5170
     27 O          24.1776   70.7654   -2.9300 O.3     1  UNL1       -0.4371
     28 O          22.5528   72.7837   -3.3718 O.3     1  UNL1       -0.2858
     29 C          23.7535   73.0390   -4.1018 C.3     1  UNL1        0.2704
     30 C          24.2565   74.4467   -3.7782 C.3     1  UNL1        0.1967
     31 C          23.1712   75.4617   -4.1502 C.3     1  UNL1        0.1715
     32 C          22.7665   75.2333   -5.6109 C.3     1  UNL1        0.1694
     33 C          22.3743   73.7653   -5.7950 C.3     1  UNL1        0.1761
     34 O          24.5455   74.5427   -2.3824 O.3     1  UNL1       -0.3775
     35 O          23.6797   76.7880   -3.9920 O.3     1  UNL1       -0.3794
     36 O          23.8656   75.5502   -6.4663 O.3     1  UNL1       -0.3794
     37 O          23.4910   72.9279   -5.4987 O.3     1  UNL1       -0.3258
     38 H          25.2263   73.8829   -2.1925 H       1  UNL1        0.2106
     39 H          23.9318   76.8823   -3.0648 H       1  UNL1        0.2105
     40 H          24.0810   76.4793   -6.3127 H       1  UNL1        0.2105
     41 C          21.9356   73.5341   -7.2428 C.3     1  UNL1        0.1693
     42 O          23.0759   73.2067   -8.0387 O.3     1  UNL1       -0.3794
     43 H          22.7569   73.0684   -8.9412 H       1  UNL1        0.2105
@<TRIPOS>BOND
     1    15    16   ar
     2    15    20   ar
     3    15     6    1
     4    16    17   ar
     5    16    21    2
     6    17    18   ar
     7    17    23    1
     8    18    19   ar
     9    18    22    2
    10    19    20   ar
    11     6     7    1
    12     6    11    1
    13     7     8    1
    14     7     9    1
    15     8    13    1
    16     9    10    1
    17     9    12    1
    18    10    11    1
    19    10     5    1
    20    12    14    1
    21     5     4    1
    22     4     1    1
    23     1     2    2
    24     1     3    1
    25     1    24    1
    26    24    25    1
    27    25    26    2
    28    25    27    1
    29    25    28    1
    30    28    29    1
    31    29    30    1
    32    29    37    1
    33    30    31    1
    34    30    34    1
    35    31    32    1
    36    31    35    1
    37    32    33    1
    38    32    36    1
    39    33    41    1
    40    33    37    1
    41    41    42    1
    42    34    38    1
    43    35    39    1
    44    36    40    1
    45    42    43    1
@<TRIPOS>MOLECULE
GDU
 43 45 0 0 0
SMALL
GASTEIGER

@<TRIPOS>ATOM
      1 P          22.0669   72.5602   -1.1712 P.3     1  UNL1        0.2189
      2 O          22.8883   73.7328   -0.7969 O.2     1  UNL1       -0.5170
      3 O          20.7075   72.5599   -0.3080 O.3     1  UNL1       -0.4371
      4 O          21.7081   72.6337   -2.7373 O.3     1  UNL1       -0.3112
      5 C          21.3613   71.3092   -3.1448 C.3     1  UNL1        0.1811
      6 C          20.3685   71.1453   -6.5966 C.3     1  UNL1        0.2383
      7 C          20.7335   72.6343   -6.3670 C.3     1  UNL1        0.1895
      8 O          21.2419   73.2253   -7.5652 O.3     1  UNL1       -0.3779
      9 C          21.8415   72.5342   -5.2864 C.3     1  UNL1        0.1713
     10 C          21.6152   71.1525   -4.6452 C.3     1  UNL1        0.1764
     11 O          20.4632   70.5679   -5.2771 O.3     1  UNL1       -0.3308
     12 O          23.1351   72.6078   -5.8890 O.3     1  UNL1       -0.3794
     13 H          21.4485   74.1468   -7.3556 H       1  UNL1        0.2106
     14 H          23.1934   73.4698   -6.3229 H       1  UNL1        0.2105
     15 N          19.0063   71.0204   -7.1177 N.ar    1  UNL1       -0.2551
     16 C          18.8004   70.4423   -8.3143 C.ar    1  UNL1        0.3323
     17 N          17.5576   70.3119   -8.8146 N.ar    1  UNL1       -0.2743
     18 C          16.4953   70.7701   -8.1247 C.ar    1  UNL1        0.2626
     19 C          16.6976   71.3864   -6.8655 C.ar    1  UNL1        0.0795
     20 C          17.9541   71.5005   -6.3852 C.ar    1  UNL1        0.0869
     21 O          19.7487   70.0238   -8.9479 O.2     1  UNL1       -0.2464
     22 O          15.3704   70.6568   -8.5789 O.2     1  UNL1       -0.2670
     23 H          17.4271   69.8882   -9.6778 H       1  UNL1        0.1734
     24 O          22.8919   71.2105   -0.8710 O.3     1  UNL1       -0.2703
     25 P          22.8393   70.9756    0.7203 P.3     1  UNL1        0.2208
     26 O          21.6199   70.2123    1.0659 O.2     1  UNL1       -0.5170
     27 O          24.1401   70.1464    1.1834 O.3     1  UNL1       -0.4371
     28 O          22.8149   72.3978    1.4733 O.3     1  UNL1       -0.2858
     29 C          22.7682   72.1247    2.8743 C.3     1  UNL1        0.2704
     30 C          21.5430   72.8066    3.4854 C.3     1  UNL1        0.1967
     31 C          21.6328   74.3144    3.2309 C.3     1  UNL1        0.1715
     32 C          22.9852   74.8188    3.7470 C.3     1  UNL1        0.1694
     33 C          24.1019   73.9849    3.1140 C.3     1  UNL1        0.1761
     34 O          20.3561   72.2878    2.8825 O.3     1  UNL1       -0.3775
     35 O          20.5738   74.9817    3.9207 O.3     1  UNL1       -0.3794
     36 O          23.0326   74.6891    5.1685 O.3     1  UNL1       -0.3794
     37 O          23.9548   72.6170    3.4925 O.3     1  UNL1       -0.3258
     38 H          20.3448   71.3376    3.0613 H       1  UNL1        0.2106
     39 H          19.7460   74.6258    3.5738 H       1  UNL1        0.2105
     40 H          22.3106   75.2244    5.5227 H       1  UNL1        0.2105
     41 C          25.4588   74.5028    3.5963 C.3     1  UNL1        0.1693
     42 O          26.4838   73.5889    3.2025 O.3     1  UNL1       -0.3794
     43 H          27.3207   73.9515    3.5242 H       1  UNL1        0.2105
@<TRIPOS>BOND
     1    15    16   ar
     2    15    20   ar
     3    15     6    1
     4    16    17   ar
     5    16    21    2
     6    17    18   ar
     7    17    23    1
     8    18    19   ar
     9    18    22    2
    10    19    20   ar
    11     6     7    1
    12     6    11    1
    13     7     8    1
    14     7     9    1
    15     8    13    1
    16     9    10    1
    17     9    12    1
    18    10    11    1
    19    10     5    1
    20    12    14    1
    21     5     4    1
    22     4     1    1
    23     1     2    2
    24     1     3    1
    25     1    24    1
    26    24    25    1
    27    25    26    2
    28    25    27    1
    29    25    28    1
    30    28    29    1
    31    29    30    1
    32    29    37    1
    33    30    31    1
    34    30    34    1
    35    31    32    1
    36    31    35    1
    37    32    33    1
    38    32    36    1
    39    33    41    1
    40    33    37    1
    41    41    42    1
    42    34    38    1
    43    35    39    1
    44    36    40    1
    45    42    43    1
@<TRIPOS>MOLECULE
GDU
 43 45 0 0 0
SMALL
GASTEIGER

@<TRIPOS>ATOM
      1 P          23.5265   72.3945   -3.4776 P.3     1  UNL1        0.2189
      2 O          24.0742   71.0672   -3.1203 O.2     1  UNL1       -0.5170
      3 O          24.7093   73.3277   -4.0462 O.3     1  UNL1       -0.4371
      4 O          22.3912   72.2216   -4.6036 O.3     1  UNL1       -0.3112
      5 C          22.6442   73.2116   -5.6019 C.3     1  UNL1        0.1811
      6 C          19.4779   72.1736   -6.9525 C.3     1  UNL1        0.2383
      7 C          19.2005   73.5701   -6.3395 C.3     1  UNL1        0.1895
      8 O          18.1699   74.2483   -7.0616 O.3     1  UNL1       -0.3779
      9 C          20.5656   74.2827   -6.5236 C.3     1  UNL1        0.1713
     10 C          21.5712   73.1281   -6.6889 C.3     1  UNL1        0.1764
     11 O          20.8388   71.8973   -6.5589 O.3     1  UNL1       -0.3308
     12 O          20.5451   75.1080   -7.6900 O.3     1  UNL1       -0.3794
     13 H          18.0463   75.1060   -6.6315 H       1  UNL1        0.2106
     14 H          19.8574   75.7731   -7.5504 H       1  UNL1        0.2105
     15 N          18.5665   71.1729   -6.3950 N.ar    1  UNL1       -0.2551
     16 C          17.4787   70.7999   -7.0920 C.ar    1  UNL1        0.3323
     17 N          16.6266   69.8793   -6.6036 N.ar    1  UNL1       -0.2743
     18 C          16.8465   69.3214   -5.3976 C.ar    1  UNL1        0.2626
     19 C          17.9851   69.7089   -4.6496 C.ar    1  UNL1        0.0795
     20 C          18.8257   70.6312   -5.1647 C.ar    1  UNL1        0.0869
     21 O          17.2674   71.2940   -8.1816 O.2     1  UNL1       -0.2464
     22 O          16.0732   68.4915   -4.9526 O.2     1  UNL1       -0.2670
     23 H          15.8488   69.6188   -7.1222 H       1  UNL1        0.1734
     24 O          22.8863   73.0799   -2.1689 O.3     1  UNL1       -0.2703
     25 P          21.7112   72.1055   -1.6594 P.3     1  UNL1        0.2208
     26 O          20.4034   72.6359   -2.1037 O.2     1  UNL1       -0.5170
     27 O          21.9300   70.6335   -2.2756 O.3     1  UNL1       -0.4371
     28 O          21.7400   72.0229   -0.0524 O.3     1  UNL1       -0.2858
     29 C          22.8282   72.8375    0.3855 C.3     1  UNL1        0.2704
     30 C          23.9759   71.9433    0.8574 C.3     1  UNL1        0.1967
     31 C          23.4759   71.0503    1.9971 C.3     1  UNL1        0.1715
     32 C          22.8543   71.9396    3.0799 C.3     1  UNL1        0.1694
     33 C          21.7895   72.8333    2.4392 C.3     1  UNL1        0.1761
     34 O          24.4262   71.1301   -0.2275 O.3     1  UNL1       -0.3775
     35 O          24.5712   70.3150    2.5468 O.3     1  UNL1       -0.3794
     36 O          23.8697   72.7491    3.6745 O.3     1  UNL1       -0.3794
     37 O          22.3936   73.6727    1.4561 O.3     1  UNL1       -0.3258
     38 H          24.7241   71.7325   -0.9227 H       1  UNL1        0.2106
     39 H          24.9374   69.7811    1.8305 H       1  UNL1        0.2105
     40 H          24.5191   72.1459    4.0589 H       1  UNL1        0.2105
     41 C          21.1382   73.7015    3.5182 C.3     1  UNL1        0.1693
     42 O          19.8136   73.2304    3.7721 O.3     1  UNL1       -0.3794
     43 H          19.4395   73.8022    4.4564 H       1  UNL1        0.2105
@<TRIPOS>BOND
     1    15    16   ar
     2    15    20   ar
     3    15     6    1
     4    16    17   ar
     5    16    21    2
     6    17    18   ar
     7    17    23    1
     8    18    19   ar
     9    18    22    2
    10    19    20   ar
    11     6     7    1
    12     6    11    1
    13     7     8    1
    14     7     9    1
    15     8    13    1
    16     9    10    1
    17     9    12    1
    18    10    11    1
    19    10     5    1
    20    12    14    1
    21     5     4    1
    22     4     1    1
    23     1     2    2
    24     1     3    1
    25     1    24    1
    26    24    25    1
    27    25    26    2
    28    25    27    1
    29    25    28    1
    30    28    29    1
    31    29    30    1
    32    29    37    1
    33    30    31    1
    34    30    34    1
    35    31    32    1
    36    31    35    1
    37    32    33    1
    38    32    36    1
    39    33    41    1
    40    33    37    1
    41    41    42    1
    42    34    38    1
    43    35    39    1
    44    36    40    1
    45    42    43    1
@<TRIPOS>MOLECULE
GDU
 43 45 0 0 0
SMALL
GASTEIGER

@<TRIPOS>ATOM
      1 P          19.9332   72.2944   -3.1112 P.3     1  UNL1        0.2189
      2 O          20.5550   71.2651   -3.9734 O.2     1  UNL1       -0.5170
      3 O          19.5389   73.5753   -4.0038 O.3     1  UNL1       -0.4371
      4 O          18.6099   71.6914   -2.4240 O.3     1  UNL1       -0.3112
      5 C          17.5066   72.4609   -2.9048 C.3     1  UNL1        0.1811
      6 C          16.7377   70.5580   -5.8570 C.3     1  UNL1        0.2383
      7 C          17.3289   69.5206   -4.8684 C.3     1  UNL1        0.1895
      8 O          16.7578   68.2280   -5.0836 O.3     1  UNL1       -0.3779
      9 C          16.8940   70.0958   -3.4953 C.3     1  UNL1        0.1713
     10 C          16.6146   71.5824   -3.7839 C.3     1  UNL1        0.1764
     11 O          16.9142   71.8157   -5.1710 O.3     1  UNL1       -0.3308
     12 O          15.7133   69.4390   -3.0299 O.3     1  UNL1       -0.3794
     13 H          17.1661   67.6321   -4.4402 H       1  UNL1        0.2106
     14 H          15.9357   68.5041   -2.9250 H       1  UNL1        0.2105
     15 N          17.4784   70.5508   -7.1196 N.ar    1  UNL1       -0.2551
     16 C          16.8087   70.5305   -8.2855 C.ar    1  UNL1        0.3323
     17 N          17.4656   70.5271   -9.4603 N.ar    1  UNL1       -0.2743
     18 C          18.8123   70.5340   -9.4864 C.ar    1  UNL1        0.2626
     19 C          19.5310   70.5495   -8.2660 C.ar    1  UNL1        0.0795
     20 C          18.8473   70.5569   -7.1020 C.ar    1  UNL1        0.0869
     21 O          15.5938   70.5246   -8.2778 O.2     1  UNL1       -0.2464
     22 O          19.4078   70.5260  -10.5493 O.2     1  UNL1       -0.2670
     23 H          16.9661   70.5167  -10.2923 H       1  UNL1        0.1734
     24 O          20.9776   72.7388   -1.9692 O.3     1  UNL1       -0.2703
     25 P          21.1382   71.4868   -0.9709 P.3     1  UNL1        0.2208
     26 O          20.2270   70.4000   -1.3925 O.2     1  UNL1       -0.5170
     27 O          22.6590   70.9582   -1.0137 O.3     1  UNL1       -0.4371
     28 O          20.7723   71.9439    0.5282 O.3     1  UNL1       -0.2858
     29 C          21.5763   73.0873    0.8213 C.3     1  UNL1        0.2704
     30 C          22.4007   72.8205    2.0817 C.3     1  UNL1        0.1967
     31 C          21.4503   72.5154    3.2436 C.3     1  UNL1        0.1715
     32 C          20.4342   73.6573    3.3584 C.3     1  UNL1        0.1694
     33 C          19.7571   73.8594    2.0006 C.3     1  UNL1        0.1761
     34 O          23.2639   71.7036    1.8615 O.3     1  UNL1       -0.3775
     35 O          22.1958   72.4090    4.4583 O.3     1  UNL1       -0.3794
     36 O          21.1053   74.8569    3.7464 O.3     1  UNL1       -0.3794
     37 O          20.7337   74.2192    1.0245 O.3     1  UNL1       -0.3258
     38 H          23.8378   71.9367    1.1191 H       1  UNL1        0.2106
     39 H          22.8280   71.6894    4.3366 H       1  UNL1        0.2105
     40 H          21.5203   74.6816    4.6010 H       1  UNL1        0.2105
     41 C          18.7156   74.9750    2.1130 C.3     1  UNL1        0.1693
     42 O          18.0844   74.9090    3.3929 O.3     1  UNL1       -0.3794
     43 H          17.4375   75.6273    3.4233 H       1  UNL1        0.2105
@<TRIPOS>BOND
     1    15    16   ar
     2    15    20   ar
     3    15     6    1
     4    16    17   ar
     5    16    21    2
     6    17    18   ar
     7    17    23    1
     8    18    19   ar
     9    18    22    2
    10    19    20   ar
    11     6     7    1
    12     6    11    1
    13     7     8    1
    14     7     9    1
    15     8    13    1
    16     9    10    1
    17     9    12    1
    18    10    11    1
    19    10     5    1
    20    12    14    1
    21     5     4    1
    22     4     1    1
    23     1     2    2
    24     1     3    1
    25     1    24    1
    26    24    25    1
    27    25    26    2
    28    25    27    1
    29    25    28    1
    30    28    29    1
    31    29    30    1
    32    29    37    1
    33    30    31    1
    34    30    34    1
    35    31    32    1
    36    31    35    1
    37    32    33    1
    38    32    36    1
    39    33    41    1
    40    33    37    1
    41    41    42    1
    42    34    38    1
    43    35    39    1
    44    36    40    1
    45    42    43    1
@<TRIPOS>MOLECULE
GDU
 43 45 0 0 0
SMALL
GASTEIGER

@<TRIPOS>ATOM
      1 P          15.4984   72.4431   -2.6311 P.3     1  UNL1        0.2189
      2 O          14.3171   72.4475   -3.5223 O.2     1  UNL1       -0.5170
      3 O          15.2832   73.5159   -1.4496 O.3     1  UNL1       -0.4371
      4 O          15.6872   70.9771   -1.9969 O.3     1  UNL1       -0.3112
      5 C          14.8736   70.9258   -0.8239 C.3     1  UNL1        0.1811
      6 C          12.7265   68.2468    0.2441 C.3     1  UNL1        0.2383
      7 C          11.9118   69.5349    0.5272 C.3     1  UNL1        0.1895
      8 O          10.5093   69.2892    0.4008 O.3     1  UNL1       -0.3779
      9 C          12.4097   70.4867   -0.5915 C.3     1  UNL1        0.1713
     10 C          13.7645   69.8897   -1.0153 C.3     1  UNL1        0.1764
     11 O          14.0130   68.7478   -0.1772 O.3     1  UNL1       -0.3308
     12 O          11.4929   70.4919   -1.6876 O.3     1  UNL1       -0.3794
     13 H          10.0616   70.1259    0.5888 H       1  UNL1        0.2106
     14 H          10.6498   70.8192   -1.3460 H       1  UNL1        0.2105
     15 N          12.8595   67.4406    1.4587 N.ar    1  UNL1       -0.2551
     16 C          12.3658   66.1901    1.4863 C.ar    1  UNL1        0.3323
     17 N          12.4780   65.4266    2.5892 N.ar    1  UNL1       -0.2743
     18 C          13.0814   65.9098    3.6922 C.ar    1  UNL1        0.2626
     19 C          13.6010   67.2274    3.6796 C.ar    1  UNL1        0.0795
     20 C          13.4787   67.9700    2.5588 C.ar    1  UNL1        0.0869
     21 O          11.8194   65.7403    0.4988 O.2     1  UNL1       -0.2464
     22 O          13.1791   65.2212    4.6926 O.2     1  UNL1       -0.2670
     23 H          12.1197   64.5247    2.5901 H       1  UNL1        0.1734
     24 O          16.8101   72.8358   -3.4782 O.3     1  UNL1       -0.2703
     25 P          16.8090   71.9109   -4.7953 P.3     1  UNL1        0.2208
     26 O          16.5781   70.5017   -4.4081 O.2     1  UNL1       -0.5170
     27 O          15.6363   72.3931   -5.7884 O.3     1  UNL1       -0.4371
     28 O          18.2289   72.0375   -5.5423 O.3     1  UNL1       -0.2858
     29 C          18.8081   70.7321   -5.5565 C.3     1  UNL1        0.2704
     30 C          20.3288   70.8485   -5.4408 C.3     1  UNL1        0.1967
     31 C          20.8550   71.6865   -6.6102 C.3     1  UNL1        0.1715
     32 C          20.3454   71.0745   -7.9199 C.3     1  UNL1        0.1694
     33 C          18.8221   70.9427   -7.8482 C.3     1  UNL1        0.1761
     34 O          20.6678   71.4816   -4.2057 O.3     1  UNL1       -0.3775
     35 O          22.2841   71.6818   -6.5993 O.3     1  UNL1       -0.3794
     36 O          20.9331   69.7861   -8.1058 O.3     1  UNL1       -0.3794
     37 O          18.4642   70.0746   -6.7739 O.3     1  UNL1       -0.3258
     38 H          20.3116   70.9249   -3.4999 H       1  UNL1        0.2106
     39 H          22.5588   72.0628   -5.7557 H       1  UNL1        0.2105
     40 H          21.8897   69.9170   -8.1392 H       1  UNL1        0.2105
     41 C          18.2994   70.3642   -9.1650 C.3     1  UNL1        0.1693
     42 O          18.8898   71.0662  -10.2604 O.3     1  UNL1       -0.3794
     43 H          18.5357   70.6716  -11.0692 H       1  UNL1        0.2105
@<TRIPOS>BOND
     1    15    16   ar
     2    15    20   ar
     3    15     6    1
     4    16    17   ar
     5    16    21    2
     6    17    18   ar
     7    17    23    1
     8    18    19   ar
     9    18    22    2
    10    19    20   ar
    11     6     7    1
    12     6    11    1
    13     7     8    1
    14     7     9    1
    15     8    13    1
    16     9    10    1
    17     9    12    1
    18    10    11    1
    19    10     5    1
    20    12    14    1
    21     5     4    1
    22     4     1    1
    23     1     2    2
    24     1     3    1
    25     1    24    1
    26    24    25    1
    27    25    26    2
    28    25    27    1
    29    25    28    1
    30    28    29    1
    31    29    30    1
    32    29    37    1
    33    30    31    1
    34    30    34    1
    35    31    32    1
    36    31    35    1
    37    32    33    1
    38    32    36    1
    39    33    41    1
    40    33    37    1
    41    41    42    1
    42    34    38    1
    43    35    39    1
    44    36    40    1
    45    42    43    1
@<TRIPOS>MOLECULE
GDU
 43 45 0 0 0
SMALL
GASTEIGER

@<TRIPOS>ATOM
      1 P          16.6043   69.5706   -2.8094 P.3     1  UNL1        0.2189
      2 O          16.0953   68.9890   -4.0712 O.2     1  UNL1       -0.5170
      3 O          16.3031   71.1523   -2.7876 O.3     1  UNL1       -0.4371
      4 O          15.8735   68.8679   -1.5608 O.3     1  UNL1       -0.3112
      5 C          15.0380   69.8582   -0.9595 C.3     1  UNL1        0.1811
      6 C          12.5545   68.1044    0.9598 C.3     1  UNL1        0.2383
      7 C          12.3382   69.5976    1.3155 C.3     1  UNL1        0.1895
      8 O          10.9650   69.8563    1.6164 O.3     1  UNL1       -0.3779
      9 C          12.7603   70.3085    0.0034 C.3     1  UNL1        0.1713
     10 C          13.6457   69.2734   -0.7150 C.3     1  UNL1        0.1764
     11 O          13.7431   68.1219    0.1410 O.3     1  UNL1       -0.3308
     12 O          11.6113   70.6267   -0.7844 O.3     1  UNL1       -0.3794
     13 H          10.8986   70.7979    1.8285 H       1  UNL1        0.2106
     14 H          11.0692   71.2299   -0.2582 H       1  UNL1        0.2105
     15 N          12.7734   67.3102    2.1698 N.ar    1  UNL1       -0.2551
     16 C          12.5338   65.9871    2.1515 C.ar    1  UNL1        0.3323
     17 N          12.7304   65.2335    3.2494 N.ar    1  UNL1       -0.2743
     18 C          13.1633   65.7980    4.3931 C.ar    1  UNL1        0.2626
     19 C          13.4144   67.1916    4.4288 C.ar    1  UNL1        0.0795
     20 C          13.2130   67.9232    3.3122 C.ar    1  UNL1        0.0869
     21 O          12.1434   65.4637    1.1270 O.2     1  UNL1       -0.2464
     22 O          13.3370   65.1175    5.3887 O.2     1  UNL1       -0.2670
     23 H          12.5565   64.2793    3.2170 H       1  UNL1        0.1734
     24 O          18.1928   69.3268   -2.7097 O.3     1  UNL1       -0.2703
     25 P          18.8770   70.2388   -3.8455 P.3     1  UNL1        0.2208
     26 O          18.8857   71.6512   -3.4047 O.2     1  UNL1       -0.5170
     27 O          20.3902   69.7445   -4.0909 O.3     1  UNL1       -0.4371
     28 O          18.0423   70.1082   -5.2152 O.3     1  UNL1       -0.2858
     29 C          18.0622   71.3935   -5.8375 C.3     1  UNL1        0.2704
     30 C          16.7865   71.5807   -6.6603 C.3     1  UNL1        0.1967
     31 C          16.7052   70.4712   -7.7133 C.3     1  UNL1        0.1715
     32 C          18.0077   70.4661   -8.5214 C.3     1  UNL1        0.1694
     33 C          19.1916   70.3614   -7.5567 C.3     1  UNL1        0.1761
     34 O          15.6477   71.5108   -5.8004 O.3     1  UNL1       -0.3775
     35 O          15.5983   70.7155   -8.5837 O.3     1  UNL1       -0.3794
     36 O          18.1061   71.6742   -9.2768 O.3     1  UNL1       -0.3794
     37 O          19.2040   71.4914   -6.6856 O.3     1  UNL1       -0.3258
     38 H          15.7445   72.2207   -5.1511 H       1  UNL1        0.2106
     39 H          14.8053   70.7220   -8.0330 H       1  UNL1        0.2105
     40 H          17.3397   71.7002   -9.8643 H       1  UNL1        0.2105
     41 C          20.4962   70.3209   -8.3556 C.3     1  UNL1        0.1693
     42 O          21.4407   71.2183   -7.7694 O.3     1  UNL1       -0.3794
     43 H          22.2469   71.1624   -8.3006 H       1  UNL1        0.2105
@<TRIPOS>BOND
     1    15    16   ar
     2    15    20   ar
     3    15     6    1
     4    16    17   ar
     5    16    21    2
     6    17    18   ar
     7    17    23    1
     8    18    19   ar
     9    18    22    2
    10    19    20   ar
    11     6     7    1
    12     6    11    1
    13     7     8    1
    14     7     9    1
    15     8    13    1
    16     9    10    1
    17     9    12    1
    18    10    11    1
    19    10     5    1
    20    12    14    1
    21     5     4    1
    22     4     1    1
    23     1     2    2
    24     1     3    1
    25     1    24    1
    26    24    25    1
    27    25    26    2
    28    25    27    1
    29    25    28    1
    30    28    29    1
    31    29    30    1
    32    29    37    1
    33    30    31    1
    34    30    34    1
    35    31    32    1
    36    31    35    1
    37    32    33    1
    38    32    36    1
    39    33    41    1
    40    33    37    1
    41    41    42    1
    42    34    38    1
    43    35    39    1
    44    36    40    1
    45    42    43    1
@<TRIPOS>MOLECULE
GDU
 43 45 0 0 0
SMALL
GASTEIGER

@<TRIPOS>ATOM
      1 P          22.1072   72.6398   -6.6159 P.3     1  UNL1        0.2189
      2 O          21.0310   73.5297   -6.1266 O.2     1  UNL1       -0.5170
      3 O          23.1761   72.3923   -5.4373 O.3     1  UNL1       -0.4371
      4 O          21.4751   71.2327   -7.0712 O.3     1  UNL1       -0.3112
      5 C          20.6179   71.5040   -8.1812 C.3     1  UNL1        0.1811
      6 C          17.5410   70.1272   -6.9305 C.3     1  UNL1        0.2383
      7 C          17.1006   71.1362   -8.0217 C.3     1  UNL1        0.1895
      8 O          15.8869   70.7133   -8.6473 O.3     1  UNL1       -0.3779
      9 C          18.2871   71.0752   -9.0186 C.3     1  UNL1        0.1713
     10 C          19.4513   70.5145   -8.1808 C.3     1  UNL1        0.1764
     11 O          18.9671   70.3309   -6.8391 O.3     1  UNL1       -0.3308
     12 O          17.9801   70.2026  -10.1078 O.3     1  UNL1       -0.3794
     13 H          15.6686   71.3811   -9.3124 H       1  UNL1        0.2106
     14 H          17.2090   70.5752  -10.5564 H       1  UNL1        0.2105
     15 N          16.8938   70.4306   -5.6530 N.ar    1  UNL1       -0.2551
     16 C          16.4399   69.4277   -4.8807 C.ar    1  UNL1        0.3323
     17 N          15.8443   69.6792   -3.7001 N.ar    1  UNL1       -0.2743
     18 C          15.6838   70.9476   -3.2760 C.ar    1  UNL1        0.2626
     19 C          16.1518   72.0143   -4.0818 C.ar    1  UNL1        0.0795
     20 C          16.7493   71.7337   -5.2594 C.ar    1  UNL1        0.0869
     21 O          16.5780   68.2784   -5.2497 O.2     1  UNL1       -0.2464
     22 O          15.1405   71.1765   -2.2098 O.2     1  UNL1       -0.2670
     23 H          15.5266   68.9430   -3.1535 H       1  UNL1        0.1734
     24 O          22.8439   73.3297   -7.8704 O.3     1  UNL1       -0.2703
     25 P          23.1477   74.8539   -7.4527 P.3     1  UNL1        0.2208
     26 O          24.2832   75.3668   -8.2505 O.2     1  UNL1       -0.5170
     27 O          21.8440   75.7571   -7.7335 O.3     1  UNL1       -0.4371
     28 O          23.5172   74.9192   -5.8877 O.3     1  UNL1       -0.2858
     29 C          23.2313   76.2479   -5.4489 C.3     1  UNL1        0.2704
     30 C          24.4866   76.8589   -4.8241 C.3     1  UNL1        0.1967
     31 C          24.9340   75.9853   -3.6481 C.3     1  UNL1        0.1715
     32 C          23.7497   75.8075   -2.6913 C.3     1  UNL1        0.1694
     33 C          22.5500   75.2740   -3.4781 C.3     1  UNL1        0.1761
     34 O          25.5272   76.9182   -5.8013 O.3     1  UNL1       -0.3775
     35 O          26.0164   76.6196   -2.9634 O.3     1  UNL1       -0.3794
     36 O          23.4190   77.0655   -2.1014 O.3     1  UNL1       -0.3794
     37 O          22.1798   76.2128   -4.4868 O.3     1  UNL1       -0.3258
     38 H          25.2000   77.4706   -6.5242 H       1  UNL1        0.2106
     39 H          26.7315   76.7215   -3.6041 H       1  UNL1        0.2105
     40 H          24.2029   77.3649   -1.6227 H       1  UNL1        0.2105
     41 C          21.3716   75.0603   -2.5254 C.3     1  UNL1        0.1693
     42 O          20.3999   74.2209   -3.1517 O.3     1  UNL1       -0.3794
     43 H          19.6762   74.1108   -2.5197 H       1  UNL1        0.2105
@<TRIPOS>BOND
     1    15    16   ar
     2    15    20   ar
     3    15     6    1
     4    16    17   ar
     5    16    21    2
     6    17    18   ar
     7    17    23    1
     8    18    19   ar
     9    18    22    2
    10    19    20   ar
    11     6     7    1
    12     6    11    1
    13     7     8    1
    14     7     9    1
    15     8    13    1
    16     9    10    1
    17     9    12    1
    18    10    11    1
    19    10     5    1
    20    12    14    1
    21     5     4    1
    22     4     1    1
    23     1     2    2
    24     1     3    1
    25     1    24    1
    26    24    25    1
    27    25    26    2
    28    25    27    1
    29    25    28    1
    30    28    29    1
    31    29    30    1
    32    29    37    1
    33    30    31    1
    34    30    34    1
    35    31    32    1
    36    31    35    1
    37    32    33    1
    38    32    36    1
    39    33    41    1
    40    33    37    1
    41    41    42    1
    42    34    38    1
    43    35    39    1
    44    36    40    1
    45    42    43    1
@<TRIPOS>MOLECULE
GDU
 43 45 0 0 0
SMALL
GASTEIGER

@<TRIPOS>ATOM
      1 P          22.9515   72.9881   -4.5577 P.3     1  UNL1        0.2189
      2 O          24.3994   72.7645   -4.3499 O.2     1  UNL1       -0.5170
      3 O          22.7276   74.3998   -5.2993 O.3     1  UNL1       -0.4371
      4 O          22.3499   71.8040   -5.4648 O.3     1  UNL1       -0.3112
      5 C          20.9818   72.1293   -5.7157 C.3     1  UNL1        0.1811
      6 C          18.2053   69.9854   -4.9271 C.3     1  UNL1        0.2383
      7 C          17.7547   70.7551   -6.1949 C.3     1  UNL1        0.1895
      8 O          16.8715   69.9587   -6.9880 O.3     1  UNL1       -0.3779
      9 C          19.1007   70.9869   -6.9297 C.3     1  UNL1        0.1713
     10 C          20.1612   70.8427   -5.8225 C.3     1  UNL1        0.1764
     11 O          19.4645   70.6038   -4.5873 O.3     1  UNL1       -0.3308
     12 O          19.2914   70.0006   -7.9460 O.3     1  UNL1       -0.3794
     13 H          16.6293   70.4929   -7.7573 H       1  UNL1        0.2106
     14 H          18.5653   70.1036   -8.5760 H       1  UNL1        0.2105
     15 N          17.2363   70.1595   -3.8437 N.ar    1  UNL1       -0.2551
     16 C          17.1006   69.2014   -2.9100 C.ar    1  UNL1        0.3323
     17 N          16.2195   69.3383   -1.9016 N.ar    1  UNL1       -0.2743
     18 C          15.4485   70.4395   -1.8172 C.ar    1  UNL1        0.2626
     19 C          15.5764   71.4544   -2.7969 C.ar    1  UNL1        0.0795
     20 C          16.4708   71.2935   -3.7952 C.ar    1  UNL1        0.0869
     21 O          17.7896   68.2027   -2.9727 O.2     1  UNL1       -0.2464
     22 O          14.6473   70.5621   -0.9075 O.2     1  UNL1       -0.2670
     23 H          16.1379   68.6387   -1.2341 H       1  UNL1        0.1734
     24 O          22.2026   73.0075   -3.1325 O.3     1  UNL1       -0.2703
     25 P          22.7205   71.7212   -2.3157 P.3     1  UNL1        0.2208
     26 O          21.6884   70.6619   -2.3579 O.2     1  UNL1       -0.5170
     27 O          24.0793   71.1727   -2.9841 O.3     1  UNL1       -0.4371
     28 O          23.0048   72.1340   -0.7864 O.3     1  UNL1       -0.2858
     29 C          23.1068   70.9201   -0.0409 C.3     1  UNL1        0.2704
     30 C          21.9341   70.8225    0.9361 C.3     1  UNL1        0.1967
     31 C          21.9620   72.0354    1.8713 C.3     1  UNL1        0.1715
     32 C          23.3474   72.1210    2.5216 C.3     1  UNL1        0.1694
     33 C          24.4136   72.1221    1.4233 C.3     1  UNL1        0.1761
     34 O          20.7049   70.8056    0.2082 O.3     1  UNL1       -0.3775
     35 O          20.9629   71.8853    2.8821 O.3     1  UNL1       -0.3794
     36 O          23.5418   70.9974    3.3817 O.3     1  UNL1       -0.3794
     37 O          24.3380   70.9078    0.6778 O.3     1  UNL1       -0.3258
     38 H          20.7342   70.0320   -0.3710 H       1  UNL1        0.2106
     39 H          20.1128   71.8237    2.4284 H       1  UNL1        0.2105
     40 H          22.8469   71.0344    4.0518 H       1  UNL1        0.2105
     41 C          25.7998   72.2419    2.0606 C.3     1  UNL1        0.1693
     42 O          26.2877   70.9392    2.3860 O.3     1  UNL1       -0.3794
     43 H          27.1612   71.0587    2.7835 H       1  UNL1        0.2105
@<TRIPOS>BOND
     1    15    16   ar
     2    15    20   ar
     3    15     6    1
     4    16    17   ar
     5    16    21    2
     6    17    18   ar
     7    17    23    1
     8    18    19   ar
     9    18    22    2
    10    19    20   ar
    11     6     7    1
    12     6    11    1
    13     7     8    1
    14     7     9    1
    15     8    13    1
    16     9    10    1
    17     9    12    1
    18    10    11    1
    19    10     5    1
    20    12    14    1
    21     5     4    1
    22     4     1    1
    23     1     2    2
    24     1     3    1
    25     1    24    1
    26    24    25    1
    27    25    26    2
    28    25    27    1
    29    25    28    1
    30    28    29    1
    31    29    30    1
    32    29    37    1
    33    30    31    1
    34    30    34    1
    35    31    32    1
    36    31    35    1
    37    32    33    1
    38    32    36    1
    39    33    41    1
    40    33    37    1
    41    41    42    1
    42    34    38    1
    43    35    39    1
    44    36    40    1
    45    42    43    1
@<TRIPOS>MOLECULE
GDU
 43 45 0 0 0
SMALL
GASTEIGER

@<TRIPOS>ATOM
      1 P          16.1676   69.7652   -2.8329 P.3     1  UNL1        0.2189
      2 O          16.4651   68.7590   -1.7895 O.2     1  UNL1       -0.5170
      3 O          15.8606   69.0186   -4.2262 O.3     1  UNL1       -0.4371
      4 O          14.8851   70.6309   -2.3940 O.3     1  UNL1       -0.3112
      5 C          14.5925   70.2799   -1.0406 C.3     1  UNL1        0.1811
      6 C          12.2858   68.0240    0.5460 C.3     1  UNL1        0.2383
      7 C          11.6359   69.4221    0.7072 C.3     1  UNL1        0.1895
      8 O          10.2100   69.3230    0.7208 O.3     1  UNL1       -0.3779
      9 C          12.1271   70.1575   -0.5668 C.3     1  UNL1        0.1713
     10 C          13.3704   69.3605   -1.0031 C.3     1  UNL1        0.1764
     11 O          13.5742   68.3165   -0.0353 O.3     1  UNL1       -0.3308
     12 O          11.1217   70.1243   -1.5817 O.3     1  UNL1       -0.3794
     13 H           9.8689   70.2224    0.8235 H       1  UNL1        0.2106
     14 H          10.3504   70.5868   -1.2271 H       1  UNL1        0.2105
     15 N          12.4430   67.3727    1.8476 N.ar    1  UNL1       -0.2551
     16 C          12.5025   68.1197    2.9642 C.ar    1  UNL1        0.3323
     17 N          12.6432   67.5456    4.1735 N.ar    1  UNL1       -0.2743
     18 C          12.7371   66.2065    4.2837 C.ar    1  UNL1        0.2626
     19 C          12.6818   65.4073    3.1156 C.ar    1  UNL1        0.0795
     20 C          12.5359   66.0086    1.9157 C.ar    1  UNL1        0.0869
     21 O          12.4188   69.3288    2.8806 O.2     1  UNL1       -0.2464
     22 O          12.8693   65.6862    5.3775 O.2     1  UNL1       -0.2670
     23 H          12.6800   68.0998    4.9693 H       1  UNL1        0.1734
     24 O          17.4369   70.7388   -3.0156 O.3     1  UNL1       -0.2703
     25 P          18.6988   69.8009   -3.3591 P.3     1  UNL1        0.2208
     26 O          19.7635   70.0198   -2.3553 O.2     1  UNL1       -0.5170
     27 O          18.2430   68.2563   -3.3291 O.3     1  UNL1       -0.4371
     28 O          19.2573   70.1659   -4.8236 O.3     1  UNL1       -0.2858
     29 C          18.9386   71.5381   -5.0591 C.3     1  UNL1        0.2704
     30 C          18.2816   71.6796   -6.4330 C.3     1  UNL1        0.1967
     31 C          19.2453   71.1569   -7.5028 C.3     1  UNL1        0.1715
     32 C          20.5894   71.8767   -7.3453 C.3     1  UNL1        0.1694
     33 C          21.0727   71.7183   -5.9016 C.3     1  UNL1        0.1761
     34 O          17.0713   70.9211   -6.4652 O.3     1  UNL1       -0.3775
     35 O          18.7080   71.4169   -8.8013 O.3     1  UNL1       -0.3794
     36 O          20.4280   73.2625   -7.6509 O.3     1  UNL1       -0.3794
     37 O          20.1321   72.3164   -5.0108 O.3     1  UNL1       -0.3258
     38 H          16.4992   71.2790   -5.7727 H       1  UNL1        0.2106
     39 H          17.8607   70.9564   -8.8510 H       1  UNL1        0.2105
     40 H          20.1181   73.3134   -8.5645 H       1  UNL1        0.2105
     41 C          22.4312   72.4045   -5.7421 C.3     1  UNL1        0.1693
     42 O          23.1057   72.4223   -7.0014 O.3     1  UNL1       -0.3794
     43 H          23.9547   72.8625   -6.8580 H       1  UNL1        0.2105
@<TRIPOS>BOND
     1    15    16   ar
     2    15    20   ar
     3    15     6    1
     4    16    17   ar
     5    16    21    2
     6    17    18   ar
     7    17    23    1
     8    18    19   ar
     9    18    22    2
    10    19    20   ar
    11     6     7    1
    12     6    11    1
    13     7     8    1
    14     7     9    1
    15     8    13    1
    16     9    10    1
    17     9    12    1
    18    10    11    1
    19    10     5    1
    20    12    14    1
    21     5     4    1
    22     4     1    1
    23     1     2    2
    24     1     3    1
    25     1    24    1
    26    24    25    1
    27    25    26    2
    28    25    27    1
    29    25    28    1
    30    28    29    1
    31    29    30    1
    32    29    37    1
    33    30    31    1
    34    30    34    1
    35    31    32    1
    36    31    35    1
    37    32    33    1
    38    32    36    1
    39    33    41    1
    40    33    37    1
    41    41    42    1
    42    34    38    1
    43    35    39    1
    44    36    40    1
    45    42    43    1
@<TRIPOS>MOLECULE
GDU
 43 45 0 0 0
SMALL
GASTEIGER

@<TRIPOS>ATOM
      1 P          22.9067   71.8850   -2.3936 P.3     1  UNL1        0.2189
      2 O          24.0068   71.2104   -3.1177 O.2     1  UNL1       -0.5170
      3 O          23.5176   73.0109   -1.4179 O.3     1  UNL1       -0.4371
      4 O          21.9109   72.5748   -3.4516 O.3     1  UNL1       -0.3112
      5 C          22.5624   72.5314   -4.7221 C.3     1  UNL1        0.1811
      6 C          19.4829   71.0288   -5.8113 C.3     1  UNL1        0.2383
      7 C          19.3160   72.5358   -6.1340 C.3     1  UNL1        0.1895
      8 O          18.4826   72.7226   -7.2802 O.3     1  UNL1       -0.3779
      9 C          20.7750   72.9671   -6.4348 C.3     1  UNL1        0.1713
     10 C          21.6332   71.8860   -5.7519 C.3     1  UNL1        0.1764
     11 O          20.7353   70.9742   -5.0958 O.3     1  UNL1       -0.3308
     12 O          21.0101   72.9855   -7.8442 O.3     1  UNL1       -0.3794
     13 H          18.4193   73.6767   -7.4264 H       1  UNL1        0.2106
     14 H          20.4036   73.6374   -8.2208 H       1  UNL1        0.2105
     15 N          18.3852   70.5554   -4.9664 N.ar    1  UNL1       -0.2551
     16 C          17.2973   70.0045   -5.5332 C.ar    1  UNL1        0.3323
     17 N          16.2756   69.5581   -4.7790 N.ar    1  UNL1       -0.2743
     18 C          16.3232   69.6659   -3.4372 C.ar    1  UNL1        0.2626
     19 C          17.4603   70.2494   -2.8267 C.ar    1  UNL1        0.0795
     20 C          18.4726   70.6850   -3.6064 C.ar    1  UNL1        0.0869
     21 O          17.2403   69.8999   -6.7423 O.2     1  UNL1       -0.2464
     22 O          15.3968   69.2665   -2.7540 O.2     1  UNL1       -0.2670
     23 H          15.5001   69.1592   -5.2047 H       1  UNL1        0.1734
     24 O          22.0970   70.8017   -1.5200 O.3     1  UNL1       -0.2703
     25 P          22.4280   71.1068    0.0251 P.3     1  UNL1        0.2208
     26 O          21.8145   70.0635    0.8761 O.2     1  UNL1       -0.5170
     27 O          24.0240   71.1056    0.2421 O.3     1  UNL1       -0.4371
     28 O          21.8340   72.5472    0.4281 O.3     1  UNL1       -0.2858
     29 C          20.4805   72.3392    0.8336 C.3     1  UNL1        0.2704
     30 C          19.5720   73.3285    0.1021 C.3     1  UNL1        0.1967
     31 C          20.0219   74.7554    0.4307 C.3     1  UNL1        0.1715
     32 C          20.0679   74.9160    1.9544 C.3     1  UNL1        0.1694
     33 C          20.9411   73.8065    2.5457 C.3     1  UNL1        0.1761
     34 O          19.6620   73.1093   -1.3069 O.3     1  UNL1       -0.3775
     35 O          19.0955   75.6910   -0.1253 O.3     1  UNL1       -0.3794
     36 O          18.7450   74.8234    2.4849 O.3     1  UNL1       -0.3794
     37 O          20.3730   72.5334    2.2419 O.3     1  UNL1       -0.3258
     38 H          19.3770   72.1992   -1.4663 H       1  UNL1        0.2106
     39 H          19.0905   75.5462   -1.0799 H       1  UNL1        0.2105
     40 H          18.2313   75.5353    2.0816 H       1  UNL1        0.2105
     41 C          21.0217   73.9780    4.0643 C.3     1  UNL1        0.1693
     42 O          21.6887   72.8510    4.6353 O.3     1  UNL1       -0.3794
     43 H          21.7192   72.9983    5.5906 H       1  UNL1        0.2105
@<TRIPOS>BOND
     1    15    16   ar
     2    15    20   ar
     3    15     6    1
     4    16    17   ar
     5    16    21    2
     6    17    18   ar
     7    17    23    1
     8    18    19   ar
     9    18    22    2
    10    19    20   ar
    11     6     7    1
    12     6    11    1
    13     7     8    1
    14     7     9    1
    15     8    13    1
    16     9    10    1
    17     9    12    1
    18    10    11    1
    19    10     5    1
    20    12    14    1
    21     5     4    1
    22     4     1    1
    23     1     2    2
    24     1     3    1
    25     1    24    1
    26    24    25    1
    27    25    26    2
    28    25    27    1
    29    25    28    1
    30    28    29    1
    31    29    30    1
    32    29    37    1
    33    30    31    1
    34    30    34    1
    35    31    32    1
    36    31    35    1
    37    32    33    1
    38    32    36    1
    39    33    41    1
    40    33    37    1
    41    41    42    1
    42    34    38    1
    43    35    39    1
    44    36    40    1
    45    42    43    1
@<TRIPOS>MOLECULE
GDU
 43 45 0 0 0
SMALL
GASTEIGER

@<TRIPOS>ATOM
      1 P          22.5331   71.4388   -2.7190 P.3     1  UNL1        0.2189
      2 O          22.1129   72.8572   -2.6853 O.2     1  UNL1       -0.5170
      3 O          23.9680   71.3213   -3.4403 O.3     1  UNL1       -0.4371
      4 O          22.6400   70.8746   -1.2166 O.3     1  UNL1       -0.3112
      5 C          21.3321   70.9602   -0.6485 C.3     1  UNL1        0.1811
      6 C          23.0868   71.8800    2.3519 C.3     1  UNL1        0.2383
      7 C          22.4964   73.2120    1.8225 C.3     1  UNL1        0.1895
      8 O          22.2002   74.1026    2.9006 O.3     1  UNL1       -0.3779
      9 C          21.1956   72.7362    1.1248 C.3     1  UNL1        0.1713
     10 C          21.4430   71.2411    0.8511 C.3     1  UNL1        0.1764
     11 O          22.7712   70.9335    1.3088 O.3     1  UNL1       -0.3308
     12 O          20.0714   72.9143    1.9888 O.3     1  UNL1       -0.3794
     13 H          21.8384   74.9081    2.5055 H       1  UNL1        0.2106
     14 H          20.0048   73.8616    2.1701 H       1  UNL1        0.2105
     15 N          24.5358   71.9894    2.5280 N.ar    1  UNL1       -0.2551
     16 C          25.3008   70.8853    2.4627 C.ar    1  UNL1        0.3323
     17 N          26.6359   70.9590    2.6176 N.ar    1  UNL1       -0.2743
     18 C          27.2289   72.1455    2.8516 C.ar    1  UNL1        0.2626
     19 C          26.4351   73.3160    2.9287 C.ar    1  UNL1        0.0795
     20 C          25.0989   73.2144    2.7654 C.ar    1  UNL1        0.0869
     21 O          24.7802   69.8081    2.2517 O.2     1  UNL1       -0.2464
     22 O          28.4367   72.2124    2.9967 O.2     1  UNL1       -0.2670
     23 H          27.1730   70.1526    2.5631 H       1  UNL1        0.1734
     24 O          21.4487   70.5782   -3.5410 O.3     1  UNL1       -0.2703
     25 P          20.8255   71.5562   -4.6568 P.3     1  UNL1        0.2208
     26 O          20.0659   72.6394   -3.9943 O.2     1  UNL1       -0.5170
     27 O          22.0151   72.1952   -5.5349 O.3     1  UNL1       -0.4371
     28 O          19.8418   70.7191   -5.6168 O.3     1  UNL1       -0.2858
     29 C          18.8949   71.6457   -6.1502 C.3     1  UNL1        0.2704
     30 C          17.4828   71.2220   -5.7430 C.3     1  UNL1        0.1967
     31 C          17.2142   69.8096   -6.2716 C.3     1  UNL1        0.1715
     32 C          17.4921   69.7894   -7.7789 C.3     1  UNL1        0.1694
     33 C          18.9054   70.3203   -8.0316 C.3     1  UNL1        0.1761
     34 O          17.3726   71.2307   -4.3186 O.3     1  UNL1       -0.3775
     35 O          15.8509   69.4569   -6.0275 O.3     1  UNL1       -0.3794
     36 O          16.5394   70.6138   -8.4516 O.3     1  UNL1       -0.3794
     37 O          19.0029   71.6674   -7.5717 O.3     1  UNL1       -0.3258
     38 H          17.5561   72.1351   -4.0301 H       1  UNL1        0.2106
     39 H          15.7189   69.4944   -5.0718 H       1  UNL1        0.2105
     40 H          15.6666   70.2465   -8.2600 H       1  UNL1        0.2105
     41 C          19.2058   70.2721   -9.5314 C.3     1  UNL1        0.1693
     42 O          18.5152   71.3359  -10.1891 O.3     1  UNL1       -0.3794
     43 H          18.7311   71.2706  -11.1295 H       1  UNL1        0.2105
@<TRIPOS>BOND
     1    15    16   ar
     2    15    20   ar
     3    15     6    1
     4    16    17   ar
     5    16    21    2
     6    17    18   ar
     7    17    23    1
     8    18    19   ar
     9    18    22    2
    10    19    20   ar
    11     6     7    1
    12     6    11    1
    13     7     8    1
    14     7     9    1
    15     8    13    1
    16     9    10    1
    17     9    12    1
    18    10    11    1
    19    10     5    1
    20    12    14    1
    21     5     4    1
    22     4     1    1
    23     1     2    2
    24     1     3    1
    25     1    24    1
    26    24    25    1
    27    25    26    2
    28    25    27    1
    29    25    28    1
    30    28    29    1
    31    29    30    1
    32    29    37    1
    33    30    31    1
    34    30    34    1
    35    31    32    1
    36    31    35    1
    37    32    33    1
    38    32    36    1
    39    33    41    1
    40    33    37    1
    41    41    42    1
    42    34    38    1
    43    35    39    1
    44    36    40    1
    45    42    43    1
@<TRIPOS>MOLECULE
GDU
 43 45 0 0 0
SMALL
GASTEIGER

@<TRIPOS>ATOM
      1 P          22.1686   73.8894   -4.7793 P.3     1  UNL1        0.2189
      2 O          22.4380   75.2833   -4.3623 O.2     1  UNL1       -0.5170
      3 O          23.5535   73.0699   -4.8385 O.3     1  UNL1       -0.4371
      4 O          21.1783   73.1937   -3.7200 O.3     1  UNL1       -0.3112
      5 C          21.6842   73.4976   -2.4192 C.3     1  UNL1        0.1811
      6 C          23.4086   71.6129    0.1110 C.3     1  UNL1        0.2383
      7 C          21.9643   71.7625    0.6538 C.3     1  UNL1        0.1895
      8 O          21.6032   70.6382    1.4592 O.3     1  UNL1       -0.3779
      9 C          21.1285   71.7987   -0.6521 C.3     1  UNL1        0.1713
     10 C          22.1438   72.2089   -1.7349 C.3     1  UNL1        0.1764
     11 O          23.4063   72.4263   -1.0814 O.3     1  UNL1       -0.3308
     12 O          20.5827   70.5080   -0.9318 O.3     1  UNL1       -0.3794
     13 H          20.6983   70.7929    1.7645 H       1  UNL1        0.2106
     14 H          20.0031   70.2826   -0.1915 H       1  UNL1        0.2105
     15 N          24.3812   72.1208    1.0799 N.ar    1  UNL1       -0.2551
     16 C          25.0595   71.2591    1.8582 C.ar    1  UNL1        0.3323
     17 N          25.9619   71.6997    2.7545 N.ar    1  UNL1       -0.2743
     18 C          26.1937   73.0193    2.8935 C.ar    1  UNL1        0.2626
     19 C          25.4825   73.9389    2.0844 C.ar    1  UNL1        0.0795
     20 C          24.5862   73.4698    1.1905 C.ar    1  UNL1        0.0869
     21 O          24.8614   70.0658    1.7439 O.2     1  UNL1       -0.2464
     22 O          27.0069   73.4194    3.7079 O.2     1  UNL1       -0.2670
     23 H          26.4454   71.0634    3.3050 H       1  UNL1        0.1734
     24 O          21.4838   73.8891   -6.2365 O.3     1  UNL1       -0.2703
     25 P          21.0607   72.3689   -6.5530 P.3     1  UNL1        0.2208
     26 O          20.8137   72.2177   -8.0039 O.2     1  UNL1       -0.5170
     27 O          22.2483   71.3773   -6.1052 O.3     1  UNL1       -0.4371
     28 O          19.7218   72.0027   -5.7386 O.3     1  UNL1       -0.2858
     29 C          18.6335   72.6133   -6.4333 C.3     1  UNL1        0.2704
     30 C          17.8680   73.5285   -5.4763 C.3     1  UNL1        0.1967
     31 C          17.3577   72.6988   -4.2941 C.3     1  UNL1        0.1715
     32 C          16.5584   71.5097   -4.8388 C.3     1  UNL1        0.1694
     33 C          17.4247   70.7459   -5.8434 C.3     1  UNL1        0.1761
     34 O          18.7370   74.5580   -5.0008 O.3     1  UNL1       -0.3775
     35 O          16.5174   73.5070   -3.4676 O.3     1  UNL1       -0.3794
     36 O          15.3758   71.9842   -5.4840 O.3     1  UNL1       -0.3794
     37 O          17.7638   71.6007   -6.9343 O.3     1  UNL1       -0.3258
     38 H          19.0390   75.0489   -5.7771 H       1  UNL1        0.2106
     39 H          17.0564   74.2461   -3.1584 H       1  UNL1        0.2105
     40 H          14.8657   72.4621   -4.8172 H       1  UNL1        0.2105
     41 C          16.6479   69.5361   -6.3679 C.3     1  UNL1        0.1693
     42 O          15.6562   69.9747   -7.2980 O.3     1  UNL1       -0.3794
     43 H          15.1909   69.1842   -7.6045 H       1  UNL1        0.2105
@<TRIPOS>BOND
     1    15    16   ar
     2    15    20   ar
     3    15     6    1
     4    16    17   ar
     5    16    21    2
     6    17    18   ar
     7    17    23    1
     8    18    19   ar
     9    18    22    2
    10    19    20   ar
    11     6     7    1
    12     6    11    1
    13     7     8    1
    14     7     9    1
    15     8    13    1
    16     9    10    1
    17     9    12    1
    18    10    11    1
    19    10     5    1
    20    12    14    1
    21     5     4    1
    22     4     1    1
    23     1     2    2
    24     1     3    1
    25     1    24    1
    26    24    25    1
    27    25    26    2
    28    25    27    1
    29    25    28    1
    30    28    29    1
    31    29    30    1
    32    29    37    1
    33    30    31    1
    34    30    34    1
    35    31    32    1
    36    31    35    1
    37    32    33    1
    38    32    36    1
    39    33    41    1
    40    33    37    1
    41    41    42    1
    42    34    38    1
    43    35    39    1
    44    36    40    1
    45    42    43    1
@<TRIPOS>MOLECULE
GDU
 43 45 0 0 0
SMALL
GASTEIGER

@<TRIPOS>ATOM
      1 P          22.9327   72.0085   -2.3267 P.3     1  UNL1        0.2189
      2 O          23.9505   71.1947   -3.0277 O.2     1  UNL1       -0.5170
      3 O          23.6639   73.0388   -1.3283 O.3     1  UNL1       -0.4371
      4 O          22.0660   72.8294   -3.4046 O.3     1  UNL1       -0.3112
      5 C          22.7704   72.7549   -4.6451 C.3     1  UNL1        0.1811
      6 C          19.7644   71.1600   -5.8061 C.3     1  UNL1        0.2383
      7 C          19.5601   72.6612   -6.1343 C.3     1  UNL1        0.1895
      8 O          18.7492   72.8224   -7.3003 O.3     1  UNL1       -0.3779
      9 C          21.0123   73.1361   -6.4006 C.3     1  UNL1        0.1713
     10 C          21.8860   72.0816   -5.6961 C.3     1  UNL1        0.1764
     11 O          21.0004   71.1433   -5.0608 O.3     1  UNL1       -0.3308
     12 O          21.2804   73.1611   -7.8039 O.3     1  UNL1       -0.3794
     13 H          18.6607   73.7742   -7.4490 H       1  UNL1        0.2106
     14 H          20.6637   73.7943   -8.1956 H       1  UNL1        0.2105
     15 N          18.6615   70.6541   -4.9873 N.ar    1  UNL1       -0.2551
     16 C          18.8805   69.6489   -4.1212 C.ar    1  UNL1        0.3323
     17 N          17.8845   69.1678   -3.3542 N.ar    1  UNL1       -0.2743
     18 C          16.6433   69.6821   -3.4499 C.ar    1  UNL1        0.2626
     19 C          16.3966   70.7373   -4.3619 C.ar    1  UNL1        0.0795
     20 C          17.4144   71.2039   -5.1161 C.ar    1  UNL1        0.0869
     21 O          19.9949   69.1752   -4.0235 O.2     1  UNL1       -0.2464
     22 O          15.7401   69.2440   -2.7594 O.2     1  UNL1       -0.2670
     23 H          18.0614   68.4448   -2.7314 H       1  UNL1        0.1734
     24 O          21.9627   71.0409   -1.4810 O.3     1  UNL1       -0.2703
     25 P          22.4006   71.1739    0.0618 P.3     1  UNL1        0.2208
     26 O          21.7230   70.1275    0.8587 O.2     1  UNL1       -0.5170
     27 O          23.9962   70.9918    0.1842 O.3     1  UNL1       -0.4371
     28 O          21.9834   72.6261    0.6159 O.3     1  UNL1       -0.2858
     29 C          22.5647   72.7577    1.9139 C.3     1  UNL1        0.2704
     30 C          21.4768   73.1261    2.9239 C.3     1  UNL1        0.1967
     31 C          20.8182   74.4395    2.4906 C.3     1  UNL1        0.1715
     32 C          21.9122   75.4954    2.2959 C.3     1  UNL1        0.1694
     33 C          22.9667   74.9475    1.3311 C.3     1  UNL1        0.1761
     34 O          20.4952   72.0890    2.9698 O.3     1  UNL1       -0.3775
     35 O          19.9029   74.8732    3.4989 O.3     1  UNL1       -0.3794
     36 O          22.5180   75.7934    3.5545 O.3     1  UNL1       -0.3794
     37 O          23.5628   73.7753    1.8847 O.3     1  UNL1       -0.3258
     38 H          20.9545   71.2819    3.2392 H       1  UNL1        0.2106
     39 H          19.2422   74.1758    3.5957 H       1  UNL1        0.2105
     40 H          21.8179   76.1287    4.1297 H       1  UNL1        0.2105
     41 C          24.0466   76.0077    1.1030 C.3     1  UNL1        0.1693
     42 O          25.0650   75.4742    0.2550 O.3     1  UNL1       -0.3794
     43 H          25.7239   76.1720    0.1358 H       1  UNL1        0.2105
@<TRIPOS>BOND
     1    15    16   ar
     2    15    20   ar
     3    15     6    1
     4    16    17   ar
     5    16    21    2
     6    17    18   ar
     7    17    23    1
     8    18    19   ar
     9    18    22    2
    10    19    20   ar
    11     6     7    1
    12     6    11    1
    13     7     8    1
    14     7     9    1
    15     8    13    1
    16     9    10    1
    17     9    12    1
    18    10    11    1
    19    10     5    1
    20    12    14    1
    21     5     4    1
    22     4     1    1
    23     1     2    2
    24     1     3    1
    25     1    24    1
    26    24    25    1
    27    25    26    2
    28    25    27    1
    29    25    28    1
    30    28    29    1
    31    29    30    1
    32    29    37    1
    33    30    31    1
    34    30    34    1
    35    31    32    1
    36    31    35    1
    37    32    33    1
    38    32    36    1
    39    33    41    1
    40    33    37    1
    41    41    42    1
    42    34    38    1
    43    35    39    1
    44    36    40    1
    45    42    43    1
@<TRIPOS>MOLECULE
GDU
 43 45 0 0 0
SMALL
GASTEIGER

@<TRIPOS>ATOM
      1 P          21.7805   72.3711   -6.3010 P.3     1  UNL1        0.2189
      2 O          23.1478   72.8211   -6.6438 O.2     1  UNL1       -0.5170
      3 O          20.7193   73.5031   -6.7314 O.3     1  UNL1       -0.4371
      4 O          21.4533   71.0039   -7.0824 O.3     1  UNL1       -0.3112
      5 C          20.5833   71.3432   -8.1634 C.3     1  UNL1        0.1811
      6 C          17.4383   70.1157   -6.9265 C.3     1  UNL1        0.2383
      7 C          17.0521   71.1280   -8.0350 C.3     1  UNL1        0.1895
      8 O          15.8275   70.7490   -8.6675 O.3     1  UNL1       -0.3779
      9 C          18.2444   71.0031   -9.0189 C.3     1  UNL1        0.1713
     10 C          19.3754   70.4045   -8.1621 C.3     1  UNL1        0.1764
     11 O          18.8709   70.2596   -6.8232 O.3     1  UNL1       -0.3308
     12 O          17.9109   70.1301  -10.0998 O.3     1  UNL1       -0.3794
     13 H          15.6444   71.4166   -9.3433 H       1  UNL1        0.2106
     14 H          17.1608   70.5293  -10.5610 H       1  UNL1        0.2105
     15 N          16.7924   70.4634   -5.6597 N.ar    1  UNL1       -0.2551
     16 C          16.4512   69.4907   -4.7961 C.ar    1  UNL1        0.3323
     17 N          15.8594   69.7837   -3.6232 N.ar    1  UNL1       -0.2743
     18 C          15.5893   71.0627   -3.2985 C.ar    1  UNL1        0.2626
     19 C          15.9379   72.0973   -4.2009 C.ar    1  UNL1        0.0795
     20 C          16.5343   71.7759   -5.3686 C.ar    1  UNL1        0.0869
     21 O          16.6889   68.3323   -5.0749 O.2     1  UNL1       -0.2464
     22 O          15.0494   71.3284   -2.2391 O.2     1  UNL1       -0.2670
     23 H          15.6239   69.0693   -3.0100 H       1  UNL1        0.1734
     24 O          21.6813   72.1204   -4.7136 O.3     1  UNL1       -0.2703
     25 P          22.8161   73.0307   -4.0256 P.3     1  UNL1        0.2208
     26 O          24.1519   72.4886   -4.3582 O.2     1  UNL1       -0.5170
     27 O          22.6984   74.5404   -4.5743 O.3     1  UNL1       -0.4371
     28 O          22.6157   73.0243   -2.4287 O.3     1  UNL1       -0.2858
     29 C          21.9868   71.7864   -2.0944 C.3     1  UNL1        0.2704
     30 C          20.6849   72.0637   -1.3411 C.3     1  UNL1        0.1967
     31 C          21.0021   72.8680   -0.0767 C.3     1  UNL1        0.1715
     32 C          22.0726   72.1190    0.7249 C.3     1  UNL1        0.1694
     33 C          23.2710   71.8390   -0.1853 C.3     1  UNL1        0.1761
     34 O          19.7988   72.8114   -2.1760 O.3     1  UNL1       -0.3775
     35 O          19.8189   73.0087    0.7123 O.3     1  UNL1       -0.3794
     36 O          21.5341   70.8869    1.2064 O.3     1  UNL1       -0.3794
     37 O          22.8642   71.0152   -1.2770 O.3     1  UNL1       -0.3258
     38 H          19.6329   72.2714   -2.9608 H       1  UNL1        0.2106
     39 H          19.1718   73.4727    0.1662 H       1  UNL1        0.2105
     40 H          20.7810   71.1112    1.7684 H       1  UNL1        0.2105
     41 C          24.3604   71.1213    0.6148 C.3     1  UNL1        0.1693
     42 O          23.7607   70.1327    1.4539 O.3     1  UNL1       -0.3794
     43 H          24.4792   69.7042    1.9391 H       1  UNL1        0.2105
@<TRIPOS>BOND
     1    15    16   ar
     2    15    20   ar
     3    15     6    1
     4    16    17   ar
     5    16    21    2
     6    17    18   ar
     7    17    23    1
     8    18    19   ar
     9    18    22    2
    10    19    20   ar
    11     6     7    1
    12     6    11    1
    13     7     8    1
    14     7     9    1
    15     8    13    1
    16     9    10    1
    17     9    12    1
    18    10    11    1
    19    10     5    1
    20    12    14    1
    21     5     4    1
    22     4     1    1
    23     1     2    2
    24     1     3    1
    25     1    24    1
    26    24    25    1
    27    25    26    2
    28    25    27    1
    29    25    28    1
    30    28    29    1
    31    29    30    1
    32    29    37    1
    33    30    31    1
    34    30    34    1
    35    31    32    1
    36    31    35    1
    37    32    33    1
    38    32    36    1
    39    33    41    1
    40    33    37    1
    41    41    42    1
    42    34    38    1
    43    35    39    1
    44    36    40    1
    45    42    43    1
