@<TRIPOS>MOLECULE
UD1
 46 48 0 0 0
SMALL
GASTEIGER

@<TRIPOS>ATOM
      1 P          20.9232   71.3905   -1.2021 P.3     1  UNL1        0.2189
      2 O          21.7708   70.7248   -2.2156 O.2     1  UNL1       -0.5170
      3 O          20.8855   70.4969    0.1367 O.3     1  UNL1       -0.4371
      4 O          19.4286   71.5558   -1.7781 O.3     1  UNL1       -0.3112
      5 C          19.1243   70.3553   -2.4899 C.3     1  UNL1        0.1811
      6 C          17.2748   70.4932   -5.5701 C.3     1  UNL1        0.2383
      7 C          17.0784   69.0422   -5.0641 C.3     1  UNL1        0.1895
      8 O          15.8113   68.5256   -5.4723 O.3     1  UNL1       -0.3779
      9 C          17.1320   69.2241   -3.5249 C.3     1  UNL1        0.1713
     10 C          17.8648   70.5658   -3.3317 C.3     1  UNL1        0.1764
     11 O          18.2242   71.0507   -4.6366 O.3     1  UNL1       -0.3308
     12 O          15.8113   69.2852   -2.9820 O.3     1  UNL1       -0.3794
     13 H          15.7521   67.6238   -5.1276 H       1  UNL1        0.2106
     14 H          15.3858   68.4419   -3.1868 H       1  UNL1        0.2105
     15 N          17.8208   70.5004   -6.9278 N.ar    1  UNL1       -0.2551
     16 C          16.9879   70.4377   -7.9812 C.ar    1  UNL1        0.3323
     17 N          17.4619   70.4466   -9.2412 N.ar    1  UNL1       -0.2743
     18 C          18.7896   70.5097   -9.4672 C.ar    1  UNL1        0.2626
     19 C          19.6781   70.5702   -8.3672 C.ar    1  UNL1        0.0795
     20 C          19.1754   70.5651   -7.1140 C.ar    1  UNL1        0.0869
     21 O          15.7878   70.3804   -7.7936 O.2     1  UNL1       -0.2464
     22 O          19.2196   70.5130  -10.6058 O.2     1  UNL1       -0.2670
     23 H          16.8464   70.4055   -9.9892 H       1  UNL1        0.1734
     24 O          21.5309   72.8413   -0.8633 O.3     1  UNL1       -0.2703
     25 P          23.1316   72.6792   -0.8330 P.3     1  UNL1        0.2208
     26 O          23.7143   73.3130   -2.0361 O.2     1  UNL1       -0.5170
     27 O          23.5131   71.1151   -0.8132 O.3     1  UNL1       -0.4371
     28 O          23.7194   73.3901    0.4860 O.3     1  UNL1       -0.2865
     29 C          23.3176   72.5922    1.6009 C.3     1  UNL1        0.2611
     30 C          22.6454   73.4854    2.6451 C.3     1  UNL1        0.1582
     31 C          23.6328   74.5721    3.0853 C.3     1  UNL1        0.1625
     32 C          24.9313   73.8987    3.5420 C.3     1  UNL1        0.1686
     33 C          25.4326   72.9765    2.4286 C.3     1  UNL1        0.1760
     34 O          23.0715   75.3198    4.1658 O.3     1  UNL1       -0.3801
     35 O          25.9160   74.8968    3.8174 O.3     1  UNL1       -0.3794
     36 O          24.4631   71.9619    2.1699 O.3     1  UNL1       -0.3263
     37 H          23.7240   75.9905    4.4100 H       1  UNL1        0.2105
     38 H          26.7154   74.4305    4.1001 H       1  UNL1        0.2105
     39 C          20.2411   73.5632    2.2614 C.2     1  UNL1        0.2231
     40 C          19.0169   74.2063    1.6613 C.3     1  UNL1        0.0946
     41 N          21.4559   74.1101    2.0628 N.am    1  UNL1       -0.2994
     42 O          20.1326   72.5527    2.9226 O.2     1  UNL1       -0.2751
     43 H          21.5430   74.9186    1.5334 H       1  UNL1        0.1496
     44 C          26.7468   72.3237    2.8620 C.3     1  UNL1        0.1693
     45 O          26.7481   70.9492    2.4709 O.3     1  UNL1       -0.3794
     46 H          27.5911   70.5762    2.7622 H       1  UNL1        0.2105
@<TRIPOS>BOND
     1    29    30    1
     2    29    28    1
     3    29    36    1
     4    30    31    1
     5    30    41    1
     6    31    32    1
     7    31    34    1
     8    32    33    1
     9    32    35    1
    10    33    44    1
    11    33    36    1
    12    44    45    1
    13    39    40    1
    14    39    41   am
    15    39    42    2
    16    41    43    1
    17    28    25    1
    18    34    37    1
    19    35    38    1
    20    45    46    1
    21    15    16   ar
    22    15    20   ar
    23    15     6    1
    24    16    17   ar
    25    16    21    2
    26    17    18   ar
    27    17    23    1
    28    18    19   ar
    29    18    22    2
    30    19    20   ar
    31     6     7    1
    32     6    11    1
    33     7     8    1
    34     7     9    1
    35     8    13    1
    36     9    10    1
    37     9    12    1
    38    10    11    1
    39    10     5    1
    40    12    14    1
    41     5     4    1
    42     4     1    1
    43     1     2    2
    44     1     3    1
    45     1    24    1
    46    24    25    1
    47    25    26    2
    48    25    27    1
@<TRIPOS>MOLECULE
UD1
 46 48 0 0 0
SMALL
GASTEIGER

@<TRIPOS>ATOM
      1 P          21.1570   71.0488   -3.7031 P.3     1  UNL1        0.2189
      2 O          21.5178   71.7308   -4.9654 O.2     1  UNL1       -0.5170
      3 O          20.7841   69.5129   -4.0105 O.3     1  UNL1       -0.4371
      4 O          19.8883   71.7855   -3.0394 O.3     1  UNL1       -0.3112
      5 C          18.9837   70.7602   -2.6262 C.3     1  UNL1        0.1811
      6 C          17.1897   70.5464   -5.7348 C.3     1  UNL1        0.2383
      7 C          17.1126   69.1167   -5.1430 C.3     1  UNL1        0.1895
      8 O          15.9044   68.4651   -5.5364 O.3     1  UNL1       -0.3779
      9 C          17.1199   69.3949   -3.6173 C.3     1  UNL1        0.1713
     10 C          17.7272   70.8060   -3.4970 C.3     1  UNL1        0.1764
     11 O          18.0677   71.2418   -4.8242 O.3     1  UNL1       -0.3308
     12 O          15.7886   69.3702   -3.0979 O.3     1  UNL1       -0.3794
     13 H          15.9185   67.5841   -5.1375 H       1  UNL1        0.2106
     14 H          15.4435   68.4814   -3.2563 H       1  UNL1        0.2105
     15 N          17.7592   70.5207   -7.0825 N.ar    1  UNL1       -0.2551
     16 C          16.9437   70.4545   -8.1493 C.ar    1  UNL1        0.3323
     17 N          17.4397   70.4334   -9.4006 N.ar    1  UNL1       -0.2743
     18 C          18.7721   70.4694   -9.6041 C.ar    1  UNL1        0.2626
     19 C          19.6422   70.5332   -8.4898 C.ar    1  UNL1        0.0795
     20 C          19.1178   70.5585   -7.2458 C.ar    1  UNL1        0.0869
     21 O          15.7398   70.4214   -7.9820 O.2     1  UNL1       -0.2464
     22 O          19.2217   70.4456  -10.7349 O.2     1  UNL1       -0.2670
     23 H          16.8367   70.3903  -10.1587 H       1  UNL1        0.1734
     24 O          22.4030   71.1065   -2.6867 O.3     1  UNL1       -0.2703
     25 P          23.1270   72.5247   -2.9189 P.3     1  UNL1        0.2208
     26 O          22.1174   73.5375   -3.2981 O.2     1  UNL1       -0.5170
     27 O          24.2155   72.3858   -4.0970 O.3     1  UNL1       -0.4371
     28 O          23.8622   72.9818   -1.5620 O.3     1  UNL1       -0.2865
     29 C          22.9552   73.8402   -0.8681 C.3     1  UNL1        0.2611
     30 C          23.7499   74.8358   -0.0212 C.3     1  UNL1        0.1582
     31 C          24.6281   74.0627    0.9690 C.3     1  UNL1        0.1625
     32 C          23.7405   73.0963    1.7604 C.3     1  UNL1        0.1686
     33 C          22.9487   72.2296    0.7789 C.3     1  UNL1        0.1760
     34 O          25.2610   74.9789    1.8642 O.3     1  UNL1       -0.3801
     35 O          24.5576   72.2627    2.5844 O.3     1  UNL1       -0.3794
     36 O          22.1108   73.0570   -0.0273 O.3     1  UNL1       -0.3263
     37 H          25.8022   74.4512    2.4675 H       1  UNL1        0.2105
     38 H          23.9602   71.6708    3.0632 H       1  UNL1        0.2105
     39 C          24.0950   76.7611   -1.4733 C.2     1  UNL1        0.2231
     40 C          24.9664   77.6027   -2.3703 C.3     1  UNL1        0.0946
     41 N          24.5961   75.6540   -0.8923 N.am    1  UNL1       -0.2994
     42 O          22.9422   77.0802   -1.2750 O.2     1  UNL1       -0.2751
     43 H          25.5186   75.3983   -1.0511 H       1  UNL1        0.1496
     44 C          22.0829   71.2385    1.5594 C.3     1  UNL1        0.1693
     45 O          21.1895   70.5762    0.6620 O.3     1  UNL1       -0.3794
     46 H          20.6637   69.9626    1.1927 H       1  UNL1        0.2105
@<TRIPOS>BOND
     1    29    30    1
     2    29    28    1
     3    29    36    1
     4    30    31    1
     5    30    41    1
     6    31    32    1
     7    31    34    1
     8    32    33    1
     9    32    35    1
    10    33    44    1
    11    33    36    1
    12    44    45    1
    13    39    40    1
    14    39    41   am
    15    39    42    2
    16    41    43    1
    17    28    25    1
    18    34    37    1
    19    35    38    1
    20    45    46    1
    21    15    16   ar
    22    15    20   ar
    23    15     6    1
    24    16    17   ar
    25    16    21    2
    26    17    18   ar
    27    17    23    1
    28    18    19   ar
    29    18    22    2
    30    19    20   ar
    31     6     7    1
    32     6    11    1
    33     7     8    1
    34     7     9    1
    35     8    13    1
    36     9    10    1
    37     9    12    1
    38    10    11    1
    39    10     5    1
    40    12    14    1
    41     5     4    1
    42     4     1    1
    43     1     2    2
    44     1     3    1
    45     1    24    1
    46    24    25    1
    47    25    26    2
    48    25    27    1
@<TRIPOS>MOLECULE
UD1
 46 48 0 0 0
SMALL
GASTEIGER

@<TRIPOS>ATOM
      1 P          20.6845   71.5560   -2.2370 P.3     1  UNL1        0.2189
      2 O          21.4162   72.8261   -2.0368 O.2     1  UNL1       -0.5170
      3 O          21.5807   70.5543   -3.1236 O.3     1  UNL1       -0.4371
      4 O          19.2973   71.8508   -2.9996 O.3     1  UNL1       -0.3112
      5 C          18.3671   70.8576   -2.5654 C.3     1  UNL1        0.1811
      6 C          16.8656   70.4930   -5.8119 C.3     1  UNL1        0.2383
      7 C          16.8532   69.0631   -5.2157 C.3     1  UNL1        0.1895
      8 O          15.7385   68.3156   -5.7035 O.3     1  UNL1       -0.3779
      9 C          16.7090   69.3446   -3.6975 C.3     1  UNL1        0.1713
     10 C          17.1892   70.8002   -3.5393 C.3     1  UNL1        0.1764
     11 O          17.6049   71.2588   -4.8370 O.3     1  UNL1       -0.3308
     12 O          15.3447   69.2141   -3.2918 O.3     1  UNL1       -0.3794
     13 H          15.7892   67.4395   -5.2968 H       1  UNL1        0.2106
     14 H          15.0864   68.3001   -3.4706 H       1  UNL1        0.2105
     15 N          17.5474   70.5100   -7.1066 N.ar    1  UNL1       -0.2551
     16 C          16.8247   70.5228   -8.2402 C.ar    1  UNL1        0.3323
     17 N          17.4252   70.5425   -9.4449 N.ar    1  UNL1       -0.2743
     18 C          18.7706   70.5405   -9.5336 C.ar    1  UNL1        0.2626
     19 C          19.5436   70.5211   -8.3483 C.ar    1  UNL1        0.0795
     20 C          18.9155   70.5069   -7.1530 C.ar    1  UNL1        0.0869
     21 O          15.6104   70.5249   -8.1765 O.2     1  UNL1       -0.2464
     22 O          19.3145   70.5535  -10.6223 O.2     1  UNL1       -0.2670
     23 H          16.8883   70.5564  -10.2521 H       1  UNL1        0.1734
     24 O          20.3785   70.8820   -0.8084 O.3     1  UNL1       -0.2703
     25 P          21.7127   71.0428    0.0768 P.3     1  UNL1        0.2208
     26 O          22.9011   70.8505   -0.7831 O.2     1  UNL1       -0.5170
     27 O          21.7156   69.9397    1.2496 O.3     1  UNL1       -0.4371
     28 O          21.7529   72.5147    0.7265 O.3     1  UNL1       -0.2865
     29 C          20.6916   72.5757    1.6811 C.3     1  UNL1        0.2611
     30 C          19.8882   73.8588    1.4617 C.3     1  UNL1        0.1582
     31 C          20.8208   75.0660    1.6117 C.3     1  UNL1        0.1625
     32 C          21.5362   74.9677    2.9632 C.3     1  UNL1        0.1686
     33 C          22.2181   73.6018    3.0680 C.3     1  UNL1        0.1760
     34 O          20.0559   76.2716    1.5576 O.3     1  UNL1       -0.3801
     35 O          22.5173   76.0019    3.0609 O.3     1  UNL1       -0.3794
     36 O          21.2378   72.5671    2.9982 O.3     1  UNL1       -0.3263
     37 H          20.6806   77.0034    1.6553 H       1  UNL1        0.2105
     38 H          22.9432   75.9028    3.9243 H       1  UNL1        0.2105
     39 C          18.0333   74.2392   -0.0709 C.2     1  UNL1        0.2231
     40 C          17.4375   74.2299   -1.4555 C.3     1  UNL1        0.0946
     41 N          19.3091   73.8503    0.1167 N.am    1  UNL1       -0.2994
     42 O          17.3637   74.5964    0.8748 O.2     1  UNL1       -0.2751
     43 H          19.8451   73.5642   -0.6399 H       1  UNL1        0.1496
     44 C          22.9629   73.5060    4.4010 C.3     1  UNL1        0.1693
     45 O          22.3873   72.4666    5.1951 O.3     1  UNL1       -0.3794
     46 H          22.8842   72.4400    6.0240 H       1  UNL1        0.2105
@<TRIPOS>BOND
     1    29    30    1
     2    29    28    1
     3    29    36    1
     4    30    31    1
     5    30    41    1
     6    31    32    1
     7    31    34    1
     8    32    33    1
     9    32    35    1
    10    33    44    1
    11    33    36    1
    12    44    45    1
    13    39    40    1
    14    39    41   am
    15    39    42    2
    16    41    43    1
    17    28    25    1
    18    34    37    1
    19    35    38    1
    20    45    46    1
    21    15    16   ar
    22    15    20   ar
    23    15     6    1
    24    16    17   ar
    25    16    21    2
    26    17    18   ar
    27    17    23    1
    28    18    19   ar
    29    18    22    2
    30    19    20   ar
    31     6     7    1
    32     6    11    1
    33     7     8    1
    34     7     9    1
    35     8    13    1
    36     9    10    1
    37     9    12    1
    38    10    11    1
    39    10     5    1
    40    12    14    1
    41     5     4    1
    42     4     1    1
    43     1     2    2
    44     1     3    1
    45     1    24    1
    46    24    25    1
    47    25    26    2
    48    25    27    1
@<TRIPOS>MOLECULE
UD1
 46 48 0 0 0
SMALL
GASTEIGER

@<TRIPOS>ATOM
      1 P          20.4667   71.4224   -1.0108 P.3     1  UNL1        0.2189
      2 O          20.5313   72.8649   -0.6887 O.2     1  UNL1       -0.5170
      3 O          21.4770   71.0970   -2.2216 O.3     1  UNL1       -0.4371
      4 O          18.9655   71.0374   -1.4476 O.3     1  UNL1       -0.3112
      5 C          19.0678   70.2684   -2.6470 C.3     1  UNL1        0.1811
      6 C          17.2718   70.4425   -5.7569 C.3     1  UNL1        0.2383
      7 C          17.0494   68.9917   -5.2609 C.3     1  UNL1        0.1895
      8 O          15.7831   68.4923   -5.6926 O.3     1  UNL1       -0.3779
      9 C          17.0795   69.1661   -3.7202 C.3     1  UNL1        0.1713
     10 C          17.8251   70.4979   -3.5087 C.3     1  UNL1        0.1764
     11 O          18.2122   70.9842   -4.8052 O.3     1  UNL1       -0.3308
     12 O          15.7508   69.2409   -3.1991 O.3     1  UNL1       -0.3794
     13 H          15.7073   67.5899   -5.3530 H       1  UNL1        0.2106
     14 H          15.3186   68.4038   -3.4149 H       1  UNL1        0.2105
     15 N          17.8404   70.4490   -7.1053 N.ar    1  UNL1       -0.2551
     16 C          17.0236   70.4817   -8.1726 C.ar    1  UNL1        0.3323
     17 N          17.5189   70.4925   -9.4244 N.ar    1  UNL1       -0.2743
     18 C          18.8514   70.4610   -9.6282 C.ar    1  UNL1        0.2626
     19 C          19.7225   70.4204   -8.5135 C.ar    1  UNL1        0.0795
     20 C          19.1990   70.4158   -7.2688 C.ar    1  UNL1        0.0869
     21 O          15.8196   70.5104   -8.0051 O.2     1  UNL1       -0.2464
     22 O          19.3002   70.4659  -10.7595 O.2     1  UNL1       -0.2670
     23 H          16.9152   70.5210  -10.1826 H       1  UNL1        0.1734
     24 O          20.8854   70.5641    0.2842 O.3     1  UNL1       -0.2703
     25 P          22.1416   71.3149    0.9533 P.3     1  UNL1        0.2208
     26 O          22.6594   72.3383    0.0187 O.2     1  UNL1       -0.5170
     27 O          23.3008   70.2438    1.2711 O.3     1  UNL1       -0.4371
     28 O          21.6780   72.0237    2.3219 O.3     1  UNL1       -0.2865
     29 C          22.1903   73.3571    2.2924 C.3     1  UNL1        0.2611
     30 C          23.1442   73.5578    3.4712 C.3     1  UNL1        0.1582
     31 C          22.3872   73.2979    4.7785 C.3     1  UNL1        0.1625
     32 C          21.1307   74.1746    4.7999 C.3     1  UNL1        0.1686
     33 C          20.3269   73.9249    3.5220 C.3     1  UNL1        0.1760
     34 O          23.2234   73.6264    5.8895 O.3     1  UNL1       -0.3801
     35 O          20.3351   73.8419    5.9392 O.3     1  UNL1       -0.3794
     36 O          21.1090   74.2823    2.3831 O.3     1  UNL1       -0.3263
     37 H          22.7090   73.4480    6.6887 H       1  UNL1        0.2105
     38 H          19.5559   74.4152    5.9134 H       1  UNL1        0.2105
     39 C          25.4385   73.0344    2.8413 C.2     1  UNL1        0.2231
     40 C          26.5920   72.0709    2.7256 C.3     1  UNL1        0.0946
     41 N          24.2652   72.6224    3.3591 N.am    1  UNL1       -0.2994
     42 O          25.5662   74.1808    2.4676 O.2     1  UNL1       -0.2751
     43 H          24.1627   71.7050    3.6580 H       1  UNL1        0.1496
     44 C          19.0530   74.7720    3.5486 C.3     1  UNL1        0.1693
     45 O          18.6708   75.1003    2.2114 O.3     1  UNL1       -0.3794
     46 H          17.8664   75.6330    2.2730 H       1  UNL1        0.2105
@<TRIPOS>BOND
     1    29    30    1
     2    29    28    1
     3    29    36    1
     4    30    31    1
     5    30    41    1
     6    31    32    1
     7    31    34    1
     8    32    33    1
     9    32    35    1
    10    33    44    1
    11    33    36    1
    12    44    45    1
    13    39    40    1
    14    39    41   am
    15    39    42    2
    16    41    43    1
    17    28    25    1
    18    34    37    1
    19    35    38    1
    20    45    46    1
    21    15    16   ar
    22    15    20   ar
    23    15     6    1
    24    16    17   ar
    25    16    21    2
    26    17    18   ar
    27    17    23    1
    28    18    19   ar
    29    18    22    2
    30    19    20   ar
    31     6     7    1
    32     6    11    1
    33     7     8    1
    34     7     9    1
    35     8    13    1
    36     9    10    1
    37     9    12    1
    38    10    11    1
    39    10     5    1
    40    12    14    1
    41     5     4    1
    42     4     1    1
    43     1     2    2
    44     1     3    1
    45     1    24    1
    46    24    25    1
    47    25    26    2
    48    25    27    1
@<TRIPOS>MOLECULE
UD1
 46 48 0 0 0
SMALL
GASTEIGER

@<TRIPOS>ATOM
      1 P          22.8020   71.4865   -2.9451 P.3     1  UNL1        0.2189
      2 O          24.1845   70.9663   -3.0273 O.2     1  UNL1       -0.5170
      3 O          22.5096   72.4360   -4.2122 O.3     1  UNL1       -0.4371
      4 O          22.6286   72.3357   -1.5881 O.3     1  UNL1       -0.3112
      5 C          23.7398   72.0106   -0.7515 C.3     1  UNL1        0.1811
      6 C          22.9837   71.9665    2.7633 C.3     1  UNL1        0.2383
      7 C          21.6586   72.3982    2.0866 C.3     1  UNL1        0.1895
      8 O          20.5308   71.9559    2.8427 O.3     1  UNL1       -0.3779
      9 C          21.7342   71.6621    0.7236 C.3     1  UNL1        0.1713
     10 C          23.2353   71.3662    0.5406 C.3     1  UNL1        0.1764
     11 O          23.9249   71.9295    1.6695 O.3     1  UNL1       -0.3308
     12 O          20.9802   70.4487    0.7678 O.3     1  UNL1       -0.3794
     13 H          19.7418   72.2557    2.3703 H       1  UNL1        0.2106
     14 H          20.0627   70.6962    0.9439 H       1  UNL1        0.2105
     15 N          23.3977   72.9472    3.7674 N.ar    1  UNL1       -0.2551
     16 C          24.3645   73.8339    3.4738 C.ar    1  UNL1        0.3323
     17 N          24.7625   74.7498    4.3767 N.ar    1  UNL1       -0.2743
     18 C          24.1997   74.7859    5.6013 C.ar    1  UNL1        0.2626
     19 C          23.1849   73.8543    5.9257 C.ar    1  UNL1        0.0795
     20 C          22.8011   72.9499    4.9994 C.ar    1  UNL1        0.0869
     21 O          24.8817   73.8141    2.3735 O.2     1  UNL1       -0.2464
     22 O          24.5621   75.6104    6.4200 O.2     1  UNL1       -0.2670
     23 H          25.4580   75.3849    4.1462 H       1  UNL1        0.1734
     24 O          21.7649   70.2563   -2.9444 O.3     1  UNL1       -0.2703
     25 P          20.2876   70.8938   -2.9206 P.3     1  UNL1        0.2208
     26 O          20.3876   72.3669   -2.8267 O.2     1  UNL1       -0.5170
     27 O          19.4793   70.3294   -1.6477 O.3     1  UNL1       -0.4371
     28 O          19.5073   70.4939   -4.2703 O.3     1  UNL1       -0.2865
     29 C          18.9743   71.7026   -4.8145 C.3     1  UNL1        0.2611
     30 C          17.4998   71.4922   -5.1634 C.3     1  UNL1        0.1582
     31 C          17.3825   70.3458   -6.1741 C.3     1  UNL1        0.1625
     32 C          18.2979   70.6472   -7.3655 C.3     1  UNL1        0.1686
     33 C          19.7131   70.9184   -6.8506 C.3     1  UNL1        0.1760
     34 O          16.0297   70.2378   -6.6208 O.3     1  UNL1       -0.3801
     35 O          18.3164   69.5251   -8.2499 O.3     1  UNL1       -0.3794
     36 O          19.7028   72.0555   -5.9884 O.3     1  UNL1       -0.3263
     37 H          16.0017   69.5064   -7.2529 H       1  UNL1        0.2105
     38 H          18.9037   69.7567   -8.9834 H       1  UNL1        0.2105
     39 C          16.5076   69.8660   -3.6451 C.2     1  UNL1        0.2231
     40 C          15.7379   69.5192   -2.3963 C.3     1  UNL1        0.0946
     41 N          16.7526   71.1549   -3.9501 N.am    1  UNL1       -0.2994
     42 O          16.9060   68.9844   -4.3761 O.2     1  UNL1       -0.2751
     43 H          16.4337   71.8605   -3.3653 H       1  UNL1        0.1496
     44 C          20.6425   71.1886   -8.0356 C.3     1  UNL1        0.1693
     45 O          19.8644   71.5406   -9.1813 O.3     1  UNL1       -0.3794
     46 H          20.4866   71.7020   -9.9033 H       1  UNL1        0.2105
@<TRIPOS>BOND
     1    29    30    1
     2    29    28    1
     3    29    36    1
     4    30    31    1
     5    30    41    1
     6    31    32    1
     7    31    34    1
     8    32    33    1
     9    32    35    1
    10    33    44    1
    11    33    36    1
    12    44    45    1
    13    39    40    1
    14    39    41   am
    15    39    42    2
    16    41    43    1
    17    28    25    1
    18    34    37    1
    19    35    38    1
    20    45    46    1
    21    15    16   ar
    22    15    20   ar
    23    15     6    1
    24    16    17   ar
    25    16    21    2
    26    17    18   ar
    27    17    23    1
    28    18    19   ar
    29    18    22    2
    30    19    20   ar
    31     6     7    1
    32     6    11    1
    33     7     8    1
    34     7     9    1
    35     8    13    1
    36     9    10    1
    37     9    12    1
    38    10    11    1
    39    10     5    1
    40    12    14    1
    41     5     4    1
    42     4     1    1
    43     1     2    2
    44     1     3    1
    45     1    24    1
    46    24    25    1
    47    25    26    2
    48    25    27    1
@<TRIPOS>MOLECULE
UD1
 46 48 0 0 0
SMALL
GASTEIGER

@<TRIPOS>ATOM
      1 P          21.2328   71.1216   -0.6223 P.3     1  UNL1        0.2189
      2 O          22.2067   70.6337   -1.6233 O.2     1  UNL1       -0.5170
      3 O          21.4121   70.2954    0.7480 O.3     1  UNL1       -0.4371
      4 O          19.7377   70.9120   -1.1824 O.3     1  UNL1       -0.3112
      5 C          19.6602   71.6098   -2.4264 C.3     1  UNL1        0.1811
      6 C          17.6091   70.6674   -5.2250 C.3     1  UNL1        0.2383
      7 C          17.9345   69.3298   -4.5143 C.3     1  UNL1        0.1895
      8 O          16.8713   68.3910   -4.6802 O.3     1  UNL1       -0.3779
      9 C          18.0578   69.7700   -3.0323 C.3     1  UNL1        0.1713
     10 C          18.3330   71.2839   -3.1132 C.3     1  UNL1        0.1764
     11 O          18.4044   71.6339   -4.5059 O.3     1  UNL1       -0.3308
     12 O          16.8392   69.5132   -2.3311 O.3     1  UNL1       -0.3794
     13 H          17.1354   67.5839   -4.2172 H       1  UNL1        0.2106
     14 H          16.6922   68.5586   -2.3669 H       1  UNL1        0.2105
     15 N          18.0057   70.6175   -6.6327 N.ar    1  UNL1       -0.2551
     16 C          17.0936   70.3106   -7.5714 C.ar    1  UNL1        0.3323
     17 N          17.4293   70.2613   -8.8742 N.ar    1  UNL1       -0.2743
     18 C          18.6969   70.5118   -9.2591 C.ar    1  UNL1        0.2626
     19 C          19.6686   70.8303   -8.2807 C.ar    1  UNL1        0.0795
     20 C          19.3035   70.8781   -6.9816 C.ar    1  UNL1        0.0869
     21 O          15.9462   70.0823   -7.2399 O.2     1  UNL1       -0.2464
     22 O          19.0026   70.4628  -10.4362 O.2     1  UNL1       -0.2670
     23 H          16.7574   70.0429   -9.5383 H       1  UNL1        0.1734
     24 O          21.4870   72.6858   -0.3441 O.3     1  UNL1       -0.2703
     25 P          23.0659   72.8620   -0.0888 P.3     1  UNL1        0.2208
     26 O          23.6861   71.5323    0.1011 O.2     1  UNL1       -0.5170
     27 O          23.3006   73.7559    1.2296 O.3     1  UNL1       -0.4371
     28 O          23.7378   73.5914   -1.3565 O.3     1  UNL1       -0.2865
     29 C          22.9593   74.7592   -1.6235 C.3     1  UNL1        0.2611
     30 C          22.8835   74.9809   -3.1351 C.3     1  UNL1        0.1582
     31 C          24.3034   75.1386   -3.6904 C.3     1  UNL1        0.1625
     32 C          25.0172   76.2435   -2.9043 C.3     1  UNL1        0.1686
     33 C          24.9347   75.9248   -1.4100 C.3     1  UNL1        0.1760
     34 O          24.2402   75.4943   -5.0728 O.3     1  UNL1       -0.3801
     35 O          26.3870   76.3071   -3.3059 O.3     1  UNL1       -0.3794
     36 O          23.5684   75.8876   -0.9997 O.3     1  UNL1       -0.3263
     37 H          25.1528   75.5827   -5.3805 H       1  UNL1        0.2105
     38 H          26.7980   77.0132   -2.7872 H       1  UNL1        0.2105
     39 C          22.9804   72.8334   -4.2809 C.2     1  UNL1        0.2231
     40 C          22.3119   71.6494   -4.9318 C.3     1  UNL1        0.0946
     41 N          22.2345   73.8304   -3.7671 N.am    1  UNL1       -0.2994
     42 O          24.1901   72.8889   -4.2202 O.2     1  UNL1       -0.2751
     43 H          21.2664   73.7863   -3.8158 H       1  UNL1        0.1496
     44 C          25.6729   77.0057   -0.6177 C.3     1  UNL1        0.1693
     45 O          25.5551   78.2581   -1.2959 O.3     1  UNL1       -0.3794
     46 H          26.0330   78.9097   -0.7651 H       1  UNL1        0.2105
@<TRIPOS>BOND
     1    29    30    1
     2    29    28    1
     3    29    36    1
     4    30    31    1
     5    30    41    1
     6    31    32    1
     7    31    34    1
     8    32    33    1
     9    32    35    1
    10    33    44    1
    11    33    36    1
    12    44    45    1
    13    39    40    1
    14    39    41   am
    15    39    42    2
    16    41    43    1
    17    28    25    1
    18    34    37    1
    19    35    38    1
    20    45    46    1
    21    15    16   ar
    22    15    20   ar
    23    15     6    1
    24    16    17   ar
    25    16    21    2
    26    17    18   ar
    27    17    23    1
    28    18    19   ar
    29    18    22    2
    30    19    20   ar
    31     6     7    1
    32     6    11    1
    33     7     8    1
    34     7     9    1
    35     8    13    1
    36     9    10    1
    37     9    12    1
    38    10    11    1
    39    10     5    1
    40    12    14    1
    41     5     4    1
    42     4     1    1
    43     1     2    2
    44     1     3    1
    45     1    24    1
    46    24    25    1
    47    25    26    2
    48    25    27    1
@<TRIPOS>MOLECULE
UD1
 46 48 0 0 0
SMALL
GASTEIGER

@<TRIPOS>ATOM
      1 P          16.6072   70.1505   -2.6988 P.3     1  UNL1        0.2189
      2 O          15.9531   69.2646   -3.6868 O.2     1  UNL1       -0.5170
      3 O          17.9248   69.4283   -2.1199 O.3     1  UNL1       -0.4371
      4 O          15.5866   70.4515   -1.4903 O.3     1  UNL1       -0.3112
      5 C          15.1963   69.1867   -0.9534 C.3     1  UNL1        0.1811
      6 C          12.1775   68.3250    0.7992 C.3     1  UNL1        0.2383
      7 C          12.5464   69.7327    1.3305 C.3     1  UNL1        0.1895
      8 O          11.3751   70.4672    1.6881 O.3     1  UNL1       -0.3779
      9 C          13.2463   70.3711    0.1026 C.3     1  UNL1        0.1713
     10 C          13.6805   69.1635   -0.7505 C.3     1  UNL1        0.1764
     11 O          13.3009   67.9745   -0.0367 O.3     1  UNL1       -0.3308
     12 O          12.3326   71.1994   -0.6197 O.3     1  UNL1       -0.3794
     13 H          11.6725   71.3295    2.0098 H       1  UNL1        0.2106
     14 H          12.0526   71.8995   -0.0151 H       1  UNL1        0.2105
     15 N          12.0383   67.3735    1.9023 N.ar    1  UNL1       -0.2551
     16 C          10.8321   67.1728    2.4609 C.ar    1  UNL1        0.3323
     17 N          10.6739   66.3009    3.4743 N.ar    1  UNL1       -0.2743
     18 C          11.7325   65.6174    3.9540 C.ar    1  UNL1        0.2626
     19 C          13.0092   65.8235    3.3792 C.ar    1  UNL1        0.0795
     20 C          13.1385   66.7001    2.3602 C.ar    1  UNL1        0.0869
     21 O           9.8677   67.7817    2.0392 O.2     1  UNL1       -0.2464
     22 O          11.5915   64.8324    4.8734 O.2     1  UNL1       -0.2670
     23 H           9.7957   66.1650    3.8621 H       1  UNL1        0.1734
     24 O          17.0205   71.5338   -3.4091 O.3     1  UNL1       -0.2703
     25 P          16.7444   71.3485   -4.9835 P.3     1  UNL1        0.2208
     26 O          15.6792   72.2822   -5.4106 O.2     1  UNL1       -0.5170
     27 O          16.2781   69.8349   -5.2729 O.3     1  UNL1       -0.4371
     28 O          18.0923   71.6598   -5.8062 O.3     1  UNL1       -0.2865
     29 C          18.8471   70.4473   -5.8393 C.3     1  UNL1        0.2611
     30 C          20.2479   70.7090   -5.2833 C.3     1  UNL1        0.1582
     31 C          20.9278   71.7928   -6.1275 C.3     1  UNL1        0.1625
     32 C          20.8791   71.3699   -7.5996 C.3     1  UNL1        0.1686
     33 C          19.4300   71.0612   -7.9817 C.3     1  UNL1        0.1760
     34 O          22.2872   71.9402   -5.7129 O.3     1  UNL1       -0.3801
     35 O          21.3751   72.4308   -8.4182 O.3     1  UNL1       -0.3794
     36 O          18.9403   69.9836   -7.1846 O.3     1  UNL1       -0.3263
     37 H          22.6754   72.6301   -6.2685 H       1  UNL1        0.2105
     38 H          21.3260   72.1234   -9.3345 H       1  UNL1        0.2105
     39 C          21.0745   70.7833   -2.9930 C.2     1  UNL1        0.2231
     40 C          20.9699   71.2481   -1.5628 C.3     1  UNL1        0.0946
     41 N          20.1471   71.1606   -3.8940 N.am    1  UNL1       -0.2994
     42 O          21.9934   70.0690   -3.3327 O.2     1  UNL1       -0.2751
     43 H          19.4114   71.7321   -3.6223 H       1  UNL1        0.1496
     44 C          19.3659   70.6691   -9.4593 C.3     1  UNL1        0.1693
     45 O          18.0439   70.2312   -9.7795 O.3     1  UNL1       -0.3794
     46 H          18.0470   69.9940  -10.7166 H       1  UNL1        0.2105
@<TRIPOS>BOND
     1    29    30    1
     2    29    28    1
     3    29    36    1
     4    30    31    1
     5    30    41    1
     6    31    32    1
     7    31    34    1
     8    32    33    1
     9    32    35    1
    10    33    44    1
    11    33    36    1
    12    44    45    1
    13    39    40    1
    14    39    41   am
    15    39    42    2
    16    41    43    1
    17    28    25    1
    18    34    37    1
    19    35    38    1
    20    45    46    1
    21    15    16   ar
    22    15    20   ar
    23    15     6    1
    24    16    17   ar
    25    16    21    2
    26    17    18   ar
    27    17    23    1
    28    18    19   ar
    29    18    22    2
    30    19    20   ar
    31     6     7    1
    32     6    11    1
    33     7     8    1
    34     7     9    1
    35     8    13    1
    36     9    10    1
    37     9    12    1
    38    10    11    1
    39    10     5    1
    40    12    14    1
    41     5     4    1
    42     4     1    1
    43     1     2    2
    44     1     3    1
    45     1    24    1
    46    24    25    1
    47    25    26    2
    48    25    27    1
@<TRIPOS>MOLECULE
UD1
 46 48 0 0 0
SMALL
GASTEIGER

@<TRIPOS>ATOM
      1 P          16.2843   69.4832   -2.4143 P.3     1  UNL1        0.2189
      2 O          16.1254   69.2674   -3.8693 O.2     1  UNL1       -0.5170
      3 O          17.0771   68.2384   -1.7705 O.3     1  UNL1       -0.4371
      4 O          14.8324   69.6058   -1.7288 O.3     1  UNL1       -0.3112
      5 C          14.8938   68.8843   -0.4976 C.3     1  UNL1        0.1811
      6 C          11.4944   67.7713   -0.1331 C.3     1  UNL1        0.2383
      7 C          12.3054   66.8613    0.8231 C.3     1  UNL1        0.1895
      8 O          11.5162   66.4681    1.9464 O.3     1  UNL1       -0.3779
      9 C          13.4623   67.7971    1.2600 C.3     1  UNL1        0.1713
     10 C          13.5115   68.8719    0.1569 C.3     1  UNL1        0.1764
     11 O          12.5116   68.5320   -0.8188 O.3     1  UNL1       -0.3308
     12 O          13.1762   68.3872    2.5300 O.3     1  UNL1       -0.3794
     13 H          12.0763   65.9059    2.4993 H       1  UNL1        0.2106
     14 H          13.0988   67.6617    3.1639 H       1  UNL1        0.2105
     15 N          10.7217   66.9694   -1.0824 N.ar    1  UNL1       -0.2551
     16 C           9.8334   67.5697   -1.8935 C.ar    1  UNL1        0.3323
     17 N           9.1117   66.8575   -2.7791 N.ar    1  UNL1       -0.2743
     18 C           9.2634   65.5202   -2.8602 C.ar    1  UNL1        0.2626
     19 C          10.1908   64.8747   -2.0081 C.ar    1  UNL1        0.0795
     20 C          10.9055   65.6139   -1.1328 C.ar    1  UNL1        0.0869
     21 O           9.6853   68.7751   -1.8323 O.2     1  UNL1       -0.2464
     22 O           8.6080   64.8748   -3.6572 O.2     1  UNL1       -0.2670
     23 H           8.4789   67.3076   -3.3598 H       1  UNL1        0.1734
     24 O          17.1136   70.8383   -2.1601 O.3     1  UNL1       -0.2703
     25 P          18.5683   70.6225   -2.8133 P.3     1  UNL1        0.2208
     26 O          18.7556   69.1914   -3.1383 O.2     1  UNL1       -0.5170
     27 O          19.7011   71.0873   -1.7679 O.3     1  UNL1       -0.4371
     28 O          18.6894   71.4984   -4.1582 O.3     1  UNL1       -0.2865
     29 C          19.5555   70.7838   -5.0416 C.3     1  UNL1        0.2611
     30 C          20.4308   71.7791   -5.8053 C.3     1  UNL1        0.1582
     31 C          19.5301   72.7395   -6.5900 C.3     1  UNL1        0.1625
     32 C          18.5720   71.9153   -7.4565 C.3     1  UNL1        0.1686
     33 C          17.8345   70.9117   -6.5675 C.3     1  UNL1        0.1760
     34 O          20.3340   73.5770   -7.4230 O.3     1  UNL1       -0.3801
     35 O          17.6273   72.7845   -8.0839 O.3     1  UNL1       -0.3794
     36 O          18.7731   70.0244   -5.9607 O.3     1  UNL1       -0.3263
     37 H          19.7284   74.1637   -7.8967 H       1  UNL1        0.2105
     38 H          17.0446   72.2258   -8.6176 H       1  UNL1        0.2105
     39 C          22.5559   72.7479   -5.1129 C.2     1  UNL1        0.2231
     40 C          23.3989   73.5290   -4.1374 C.3     1  UNL1        0.0946
     41 N          21.2500   72.5382   -4.8582 N.am    1  UNL1       -0.2994
     42 O          23.0535   72.3075   -6.1271 O.2     1  UNL1       -0.2751
     43 H          20.8516   72.8904   -4.0465 H       1  UNL1        0.1496
     44 C          16.8510   70.1052   -7.4182 C.3     1  UNL1        0.1693
     45 O          15.7862   69.6287   -6.5929 O.3     1  UNL1       -0.3794
     46 H          15.1909   69.1270   -7.1661 H       1  UNL1        0.2105
@<TRIPOS>BOND
     1    29    30    1
     2    29    28    1
     3    29    36    1
     4    30    31    1
     5    30    41    1
     6    31    32    1
     7    31    34    1
     8    32    33    1
     9    32    35    1
    10    33    44    1
    11    33    36    1
    12    44    45    1
    13    39    40    1
    14    39    41   am
    15    39    42    2
    16    41    43    1
    17    28    25    1
    18    34    37    1
    19    35    38    1
    20    45    46    1
    21    15    16   ar
    22    15    20   ar
    23    15     6    1
    24    16    17   ar
    25    16    21    2
    26    17    18   ar
    27    17    23    1
    28    18    19   ar
    29    18    22    2
    30    19    20   ar
    31     6     7    1
    32     6    11    1
    33     7     8    1
    34     7     9    1
    35     8    13    1
    36     9    10    1
    37     9    12    1
    38    10    11    1
    39    10     5    1
    40    12    14    1
    41     5     4    1
    42     4     1    1
    43     1     2    2
    44     1     3    1
    45     1    24    1
    46    24    25    1
    47    25    26    2
    48    25    27    1
@<TRIPOS>MOLECULE
UD1
 46 48 0 0 0
SMALL
GASTEIGER

@<TRIPOS>ATOM
      1 P          16.2060   69.7779   -2.8555 P.3     1  UNL1        0.2189
      2 O          15.9781   69.1269   -4.1643 O.2     1  UNL1       -0.5170
      3 O          16.8065   68.7024   -1.8185 O.3     1  UNL1       -0.4371
      4 O          14.8100   70.3465   -2.2892 O.3     1  UNL1       -0.3112
      5 C          14.7316   69.9590   -0.9166 C.3     1  UNL1        0.1811
      6 C          12.6089   67.7879    1.0089 C.3     1  UNL1        0.2383
      7 C          11.8866   69.1582    1.0329 C.3     1  UNL1        0.1895
      8 O          10.4710   68.9885    1.1142 O.3     1  UNL1       -0.3779
      9 C          12.2935   69.7649   -0.3351 C.3     1  UNL1        0.1713
     10 C          13.5656   68.9878   -0.7257 C.3     1  UNL1        0.1764
     11 O          13.8588   68.0767    0.3472 O.3     1  UNL1       -0.3308
     12 O          11.2591   69.5615   -1.3002 O.3     1  UNL1       -0.3794
     13 H          10.0829   69.8744    1.1258 H       1  UNL1        0.2106
     14 H          10.4753   70.0209   -0.9705 H       1  UNL1        0.2105
     15 N          12.8451   67.3013    2.3686 N.ar    1  UNL1       -0.2551
     16 C          12.8347   65.9797    2.6146 C.ar    1  UNL1        0.3323
     17 N          13.0527   65.5037    3.8548 N.ar    1  UNL1       -0.2743
     18 C          13.2774   66.3520    4.8784 C.ar    1  UNL1        0.2626
     19 C          13.2852   67.7460    4.6347 C.ar    1  UNL1        0.0795
     20 C          13.0688   68.1961    3.3801 C.ar    1  UNL1        0.0869
     21 O          12.6335   65.2019    1.7017 O.2     1  UNL1       -0.2464
     22 O          13.4699   65.9229    6.0010 O.2     1  UNL1       -0.2670
     23 H          13.0464   64.5471    4.0132 H       1  UNL1        0.1734
     24 O          17.2468   70.9918   -3.0340 O.3     1  UNL1       -0.2703
     25 P          18.6959   70.3316   -3.2657 P.3     1  UNL1        0.2208
     26 O          18.5334   68.9411   -3.7442 O.2     1  UNL1       -0.5170
     27 O          19.5132   70.3289   -1.8786 O.3     1  UNL1       -0.4371
     28 O          19.5068   71.1853   -4.3630 O.3     1  UNL1       -0.2865
     29 C          20.6248   70.3907   -4.7630 C.3     1  UNL1        0.2611
     30 C          21.9126   71.1893   -4.5536 C.3     1  UNL1        0.1582
     31 C          21.8424   72.4790   -5.3791 C.3     1  UNL1        0.1625
     32 C          21.5312   72.1133   -6.8342 C.3     1  UNL1        0.1686
     33 C          20.2702   71.2474   -6.8717 C.3     1  UNL1        0.1760
     34 O          23.0965   73.1601   -5.3107 O.3     1  UNL1       -0.3801
     35 O          21.3164   73.3059   -7.5913 O.3     1  UNL1       -0.3794
     36 O          20.4906   70.0426   -6.1393 O.3     1  UNL1       -0.3263
     37 H          23.0075   73.9633   -5.8421 H       1  UNL1        0.2105
     38 H          21.1234   73.0302   -8.4987 H       1  UNL1        0.2105
     39 C          23.2452   71.3574   -2.5214 C.2     1  UNL1        0.2231
     40 C          23.3938   71.6996   -1.0609 C.3     1  UNL1        0.0946
     41 N          22.0575   71.5221   -3.1350 N.am    1  UNL1       -0.2994
     42 O          24.1950   70.9329   -3.1443 O.2     1  UNL1       -0.2751
     43 H          21.2973   71.8616   -2.6367 H       1  UNL1        0.1496
     44 C          19.9322   70.9035   -8.3238 C.3     1  UNL1        0.1693
     45 O          20.1825   69.5158   -8.5558 O.3     1  UNL1       -0.3794
     46 H          19.9575   69.3416   -9.4798 H       1  UNL1        0.2105
@<TRIPOS>BOND
     1    29    30    1
     2    29    28    1
     3    29    36    1
     4    30    31    1
     5    30    41    1
     6    31    32    1
     7    31    34    1
     8    32    33    1
     9    32    35    1
    10    33    44    1
    11    33    36    1
    12    44    45    1
    13    39    40    1
    14    39    41   am
    15    39    42    2
    16    41    43    1
    17    28    25    1
    18    34    37    1
    19    35    38    1
    20    45    46    1
    21    15    16   ar
    22    15    20   ar
    23    15     6    1
    24    16    17   ar
    25    16    21    2
    26    17    18   ar
    27    17    23    1
    28    18    19   ar
    29    18    22    2
    30    19    20   ar
    31     6     7    1
    32     6    11    1
    33     7     8    1
    34     7     9    1
    35     8    13    1
    36     9    10    1
    37     9    12    1
    38    10    11    1
    39    10     5    1
    40    12    14    1
    41     5     4    1
    42     4     1    1
    43     1     2    2
    44     1     3    1
    45     1    24    1
    46    24    25    1
    47    25    26    2
    48    25    27    1
@<TRIPOS>MOLECULE
UD1
 46 48 0 0 0
SMALL
GASTEIGER

@<TRIPOS>ATOM
      1 P          20.4920   71.0152   -1.7953 P.3     1  UNL1        0.2189
      2 O          20.7145   70.6222   -0.3865 O.2     1  UNL1       -0.5170
      3 O          20.4299   72.6206   -1.9013 O.3     1  UNL1       -0.4371
      4 O          19.1013   70.3900   -2.3130 O.3     1  UNL1       -0.3112
      5 C          18.1876   71.4782   -2.4599 C.3     1  UNL1        0.1811
      6 C          16.8805   70.5293   -5.6721 C.3     1  UNL1        0.2383
      7 C          17.1689   69.1851   -4.9579 C.3     1  UNL1        0.1895
      8 O          16.2578   68.1725   -5.3869 O.3     1  UNL1       -0.3779
      9 C          16.9303   69.5494   -3.4695 C.3     1  UNL1        0.1713
     10 C          17.0746   71.0831   -3.4317 C.3     1  UNL1        0.1764
     11 O          17.4099   71.5159   -4.7612 O.3     1  UNL1       -0.3308
     12 O          15.6190   69.1536   -3.0614 O.3     1  UNL1       -0.3794
     13 H          16.4904   67.3652   -4.9078 H       1  UNL1        0.2106
     14 H          15.5725   68.1937   -3.1640 H       1  UNL1        0.2105
     15 N          17.5723   70.5920   -6.9601 N.ar    1  UNL1       -0.2551
     16 C          16.8670   70.4970   -8.1006 C.ar    1  UNL1        0.3323
     17 N          17.4765   70.5555   -9.2995 N.ar    1  UNL1       -0.2743
     18 C          18.8147   70.7021   -9.3749 C.ar    1  UNL1        0.2626
     19 C          19.5701   70.7974   -8.1820 C.ar    1  UNL1        0.0795
     20 C          18.9326   70.7411   -6.9929 C.ar    1  UNL1        0.0869
     21 O          15.6593   70.3646   -8.0490 O.2     1  UNL1       -0.2464
     22 O          19.3674   70.7503  -10.4582 O.2     1  UNL1       -0.2670
     23 H          16.9516   70.4900  -10.1121 H       1  UNL1        0.1734
     24 O          21.6996   70.4627   -2.7038 O.3     1  UNL1       -0.2703
     25 P          22.9931   71.3511   -2.3480 P.3     1  UNL1        0.2208
     26 O          24.1858   70.7701   -3.0028 O.2     1  UNL1       -0.5170
     27 O          23.2119   71.3671   -0.7530 O.3     1  UNL1       -0.4371
     28 O          22.7727   72.8566   -2.8730 O.3     1  UNL1       -0.2865
     29 C          23.9702   73.2381   -3.5524 C.3     1  UNL1        0.2611
     30 C          24.2827   74.7028   -3.2411 C.3     1  UNL1        0.1582
     31 C          23.1043   75.5734   -3.6915 C.3     1  UNL1        0.1625
     32 C          22.8044   75.2692   -5.1631 C.3     1  UNL1        0.1686
     33 C          22.6004   73.7618   -5.3288 C.3     1  UNL1        0.1760
     34 O          23.4444   76.9533   -3.5439 O.3     1  UNL1       -0.3801
     35 O          21.6190   75.9601   -5.5620 O.3     1  UNL1       -0.3794
     36 O          23.7921   73.0703   -4.9572 O.3     1  UNL1       -0.3263
     37 H          22.6769   77.4632   -3.8375 H       1  UNL1        0.2105
     38 H          21.4669   75.7406   -6.4922 H       1  UNL1        0.2105
     39 C          23.4541   75.1895   -1.0026 C.2     1  UNL1        0.2231
     40 C          23.6675   75.3560    0.4803 C.3     1  UNL1        0.0946
     41 N          24.4894   74.8641   -1.8004 N.am    1  UNL1       -0.2994
     42 O          22.3501   75.3492   -1.4780 O.2     1  UNL1       -0.2751
     43 H          25.3731   74.7365   -1.4203 H       1  UNL1        0.1496
     44 C          22.2681   73.4510   -6.7897 C.3     1  UNL1        0.1693
     45 O          22.9684   72.2741   -7.1979 O.3     1  UNL1       -0.3794
     46 H          22.7321   72.1142   -8.1216 H       1  UNL1        0.2105
@<TRIPOS>BOND
     1    29    30    1
     2    29    28    1
     3    29    36    1
     4    30    31    1
     5    30    41    1
     6    31    32    1
     7    31    34    1
     8    32    33    1
     9    32    35    1
    10    33    44    1
    11    33    36    1
    12    44    45    1
    13    39    40    1
    14    39    41   am
    15    39    42    2
    16    41    43    1
    17    28    25    1
    18    34    37    1
    19    35    38    1
    20    45    46    1
    21    15    16   ar
    22    15    20   ar
    23    15     6    1
    24    16    17   ar
    25    16    21    2
    26    17    18   ar
    27    17    23    1
    28    18    19   ar
    29    18    22    2
    30    19    20   ar
    31     6     7    1
    32     6    11    1
    33     7     8    1
    34     7     9    1
    35     8    13    1
    36     9    10    1
    37     9    12    1
    38    10    11    1
    39    10     5    1
    40    12    14    1
    41     5     4    1
    42     4     1    1
    43     1     2    2
    44     1     3    1
    45     1    24    1
    46    24    25    1
    47    25    26    2
    48    25    27    1
@<TRIPOS>MOLECULE
UD1
 46 48 0 0 0
SMALL
GASTEIGER

@<TRIPOS>ATOM
      1 P          21.1881   71.3251   -0.7916 P.3     1  UNL1        0.2189
      2 O          22.0613   70.7627   -1.8451 O.2     1  UNL1       -0.5170
      3 O          21.1969   70.3502    0.4898 O.3     1  UNL1       -0.4371
      4 O          19.6852   71.4563   -1.3545 O.3     1  UNL1       -0.3112
      5 C          19.5683   70.5362   -2.4408 C.3     1  UNL1        0.1811
      6 C          17.4797   70.6702   -5.3643 C.3     1  UNL1        0.2383
      7 C          17.2463   69.2523   -4.7852 C.3     1  UNL1        0.1895
      8 O          15.9231   68.7961   -5.0682 O.3     1  UNL1       -0.3779
      9 C          17.4376   69.4863   -3.2641 C.3     1  UNL1        0.1713
     10 C          18.2567   70.7891   -3.1858 C.3     1  UNL1        0.1764
     11 O          18.5327   71.2048   -4.5343 O.3     1  UNL1       -0.3308
     12 O          16.1719   69.6440   -2.6191 O.3     1  UNL1       -0.3794
     13 H          15.8431   67.9124   -4.6832 H       1  UNL1        0.2106
     14 H          15.6851   68.8201   -2.7542 H       1  UNL1        0.2105
     15 N          17.9105   70.5964   -6.7609 N.ar    1  UNL1       -0.2551
     16 C          16.9912   70.5798   -7.7418 C.ar    1  UNL1        0.3323
     17 N          17.3588   70.5164   -9.0352 N.ar    1  UNL1       -0.2743
     18 C          18.6639   70.4588   -9.3687 C.ar    1  UNL1        0.2626
     19 C          19.6420   70.4695   -8.3459 C.ar    1  UNL1        0.0795
     20 C          19.2457   70.5390   -7.0569 C.ar    1  UNL1        0.0869
     21 O          15.8102   70.6313   -7.4569 O.2     1  UNL1       -0.2464
     22 O          18.9973   70.3966  -10.5376 O.2     1  UNL1       -0.2670
     23 H          16.6824   70.5101   -9.7300 H       1  UNL1        0.1734
     24 O          21.7299   72.7788   -0.3649 O.3     1  UNL1       -0.2703
     25 P          20.9702   73.1768    0.9967 P.3     1  UNL1        0.2208
     26 O          20.4069   71.9595    1.6210 O.2     1  UNL1       -0.5170
     27 O          19.7799   74.2092    0.6659 O.3     1  UNL1       -0.4371
     28 O          22.0113   73.8675    2.0114 O.3     1  UNL1       -0.2865
     29 C          22.1376   72.9934    3.1343 C.3     1  UNL1        0.2611
     30 C          22.7767   73.7543    4.2973 C.3     1  UNL1        0.1582
     31 C          24.1502   74.2760    3.8605 C.3     1  UNL1        0.1625
     32 C          24.9718   73.1007    3.3204 C.3     1  UNL1        0.1686
     33 C          24.1682   72.3908    2.2288 C.3     1  UNL1        0.1760
     34 O          24.8197   74.8580    4.9805 O.3     1  UNL1       -0.3801
     35 O          26.1988   73.5869    2.7729 O.3     1  UNL1       -0.3794
     36 O          22.9545   71.8800    2.7787 O.3     1  UNL1       -0.3263
     37 H          25.6768   75.1724    4.6613 H       1  UNL1        0.2105
     38 H          26.6834   72.8163    2.4445 H       1  UNL1        0.2105
     39 C          22.1423   76.1016    4.1490 C.2     1  UNL1        0.2231
     40 C          21.2616   77.2616    4.5380 C.3     1  UNL1        0.0946
     41 N          21.9211   74.8813    4.6745 N.am    1  UNL1       -0.2994
     42 O          23.0509   76.2671    3.3633 O.2     1  UNL1       -0.2751
     43 H          21.1942   74.7487    5.3034 H       1  UNL1        0.1496
     44 C          24.9935   71.2347    1.6600 C.3     1  UNL1        0.1693
     45 O          25.0434   70.1707    2.6126 O.3     1  UNL1       -0.3794
     46 H          25.5714   69.4646    2.2160 H       1  UNL1        0.2105
@<TRIPOS>BOND
     1    29    30    1
     2    29    28    1
     3    29    36    1
     4    30    31    1
     5    30    41    1
     6    31    32    1
     7    31    34    1
     8    32    33    1
     9    32    35    1
    10    33    44    1
    11    33    36    1
    12    44    45    1
    13    39    40    1
    14    39    41   am
    15    39    42    2
    16    41    43    1
    17    28    25    1
    18    34    37    1
    19    35    38    1
    20    45    46    1
    21    15    16   ar
    22    15    20   ar
    23    15     6    1
    24    16    17   ar
    25    16    21    2
    26    17    18   ar
    27    17    23    1
    28    18    19   ar
    29    18    22    2
    30    19    20   ar
    31     6     7    1
    32     6    11    1
    33     7     8    1
    34     7     9    1
    35     8    13    1
    36     9    10    1
    37     9    12    1
    38    10    11    1
    39    10     5    1
    40    12    14    1
    41     5     4    1
    42     4     1    1
    43     1     2    2
    44     1     3    1
    45     1    24    1
    46    24    25    1
    47    25    26    2
    48    25    27    1
@<TRIPOS>MOLECULE
UD1
 46 48 0 0 0
SMALL
GASTEIGER

@<TRIPOS>ATOM
      1 P          21.6549   72.2100   -2.2422 P.3     1  UNL1        0.2189
      2 O          20.6049   71.2490   -1.8388 O.2     1  UNL1       -0.5170
      3 O          22.9074   71.4086   -2.8599 O.3     1  UNL1       -0.4371
      4 O          22.1375   73.0484   -0.9549 O.3     1  UNL1       -0.3112
      5 C          21.0338   73.0878   -0.0491 C.3     1  UNL1        0.1811
      6 C          23.1320   71.8143    2.5782 C.3     1  UNL1        0.2383
      7 C          22.3776   73.0026    3.2255 C.3     1  UNL1        0.1895
      8 O          22.1769   72.7809    4.6219 O.3     1  UNL1       -0.3779
      9 C          21.0274   72.9854    2.4628 C.3     1  UNL1        0.1713
     10 C          21.3392   72.2120    1.1670 C.3     1  UNL1        0.1764
     11 O          22.7378   71.8795    1.1911 O.3     1  UNL1       -0.3308
     12 O          20.0285   72.3086    3.2289 O.3     1  UNL1       -0.3794
     13 H          21.7050   73.5532    4.9631 H       1  UNL1        0.2106
     14 H          19.9220   72.8063    4.0506 H       1  UNL1        0.2105
     15 N          24.5794   71.9833    2.7119 N.ar    1  UNL1       -0.2551
     16 C          25.3936   70.9308    2.5201 C.ar    1  UNL1        0.3323
     17 N          26.7291   71.0580    2.6327 N.ar    1  UNL1       -0.2743
     18 C          27.2737   72.2496    2.9511 C.ar    1  UNL1        0.2626
     19 C          26.4278   73.3645    3.1617 C.ar    1  UNL1        0.0795
     20 C          25.0921   73.2101    3.0371 C.ar    1  UNL1        0.0869
     21 O          24.9175   69.8496    2.2323 O.2     1  UNL1       -0.2464
     22 O          28.4807   72.3646    3.0578 O.2     1  UNL1       -0.2670
     23 H          27.3016   70.2893    2.4861 H       1  UNL1        0.1734
     24 O          21.0635   73.2182   -3.3480 O.3     1  UNL1       -0.2703
     25 P          20.8234   72.3539   -4.6839 P.3     1  UNL1        0.2208
     26 O          21.5950   71.0943   -4.6017 O.2     1  UNL1       -0.5170
     27 O          21.3109   73.1983   -5.9651 O.3     1  UNL1       -0.4371
     28 O          19.2569   72.0148   -4.8310 O.3     1  UNL1       -0.2865
     29 C          19.1549   70.6033   -5.0270 C.3     1  UNL1        0.2611
     30 C          18.1657   70.3208   -6.1591 C.3     1  UNL1        0.1582
     31 C          16.8015   70.9162   -5.7930 C.3     1  UNL1        0.1625
     32 C          16.3875   70.3833   -4.4172 C.3     1  UNL1        0.1686
     33 C          17.5098   70.6639   -3.4157 C.3     1  UNL1        0.1760
     34 O          15.8332   70.5314   -6.7705 O.3     1  UNL1       -0.3801
     35 O          15.1906   71.0376   -3.9916 O.3     1  UNL1       -0.3794
     36 O          18.6995   69.9894   -3.8233 O.3     1  UNL1       -0.3263
     37 H          14.9925   70.9268   -6.5017 H       1  UNL1        0.2105
     38 H          14.9666   70.6739   -3.1233 H       1  UNL1        0.2105
     39 C          18.5532   70.2643   -8.5635 C.2     1  UNL1        0.2231
     40 C          19.0537   70.8940   -9.8384 C.3     1  UNL1        0.0946
     41 N          18.6513   70.9323   -7.3979 N.am    1  UNL1       -0.2994
     42 O          18.0627   69.1557   -8.5867 O.2     1  UNL1       -0.2751
     43 H          19.0441   71.8194   -7.3790 H       1  UNL1        0.1496
     44 C          17.0926   70.1645   -2.0309 C.3     1  UNL1        0.1693
     45 O          16.3741   68.9364   -2.1636 O.3     1  UNL1       -0.3794
     46 H          16.1301   68.6571   -1.2708 H       1  UNL1        0.2105
@<TRIPOS>BOND
     1    29    30    1
     2    29    28    1
     3    29    36    1
     4    30    31    1
     5    30    41    1
     6    31    32    1
     7    31    34    1
     8    32    33    1
     9    32    35    1
    10    33    44    1
    11    33    36    1
    12    44    45    1
    13    39    40    1
    14    39    41   am
    15    39    42    2
    16    41    43    1
    17    28    25    1
    18    34    37    1
    19    35    38    1
    20    45    46    1
    21    15    16   ar
    22    15    20   ar
    23    15     6    1
    24    16    17   ar
    25    16    21    2
    26    17    18   ar
    27    17    23    1
    28    18    19   ar
    29    18    22    2
    30    19    20   ar
    31     6     7    1
    32     6    11    1
    33     7     8    1
    34     7     9    1
    35     8    13    1
    36     9    10    1
    37     9    12    1
    38    10    11    1
    39    10     5    1
    40    12    14    1
    41     5     4    1
    42     4     1    1
    43     1     2    2
    44     1     3    1
    45     1    24    1
    46    24    25    1
    47    25    26    2
    48    25    27    1
@<TRIPOS>MOLECULE
UD1
 46 48 0 0 0
SMALL
GASTEIGER

@<TRIPOS>ATOM
      1 P          22.6998   71.3136   -2.7847 P.3     1  UNL1        0.2189
      2 O          24.0856   70.8491   -3.0141 O.2     1  UNL1       -0.5170
      3 O          22.4859   72.7392   -3.5019 O.3     1  UNL1       -0.4371
      4 O          22.4403   71.4656   -1.2028 O.3     1  UNL1       -0.3112
      5 C          22.9340   72.7513   -0.8240 C.3     1  UNL1        0.1811
      6 C          24.1126   72.7145    2.5726 C.3     1  UNL1        0.2383
      7 C          23.7378   71.2408    2.2758 C.3     1  UNL1        0.1895
      8 O          24.5640   70.3437    3.0186 O.3     1  UNL1       -0.3779
      9 C          24.0279   71.1308    0.7563 C.3     1  UNL1        0.1713
     10 C          23.9981   72.5902    0.2628 C.3     1  UNL1        0.1764
     11 O          23.6732   73.4190    1.3918 O.3     1  UNL1       -0.3308
     12 O          25.3131   70.5465    0.5333 O.3     1  UNL1       -0.3794
     13 H          24.2805   69.4476    2.7901 H       1  UNL1        0.2106
     14 H          25.2868   69.6594    0.9160 H       1  UNL1        0.2105
     15 N          23.4055   73.2018    3.7575 N.ar    1  UNL1       -0.2551
     16 C          22.1001   72.9225    3.9161 C.ar    1  UNL1        0.3323
     17 N          21.4253   73.3544    4.9980 N.ar    1  UNL1       -0.2743
     18 C          22.0511   74.0869    5.9413 C.ar    1  UNL1        0.2626
     19 C          23.4238   74.3932    5.7839 C.ar    1  UNL1        0.0795
     20 C          24.0777   73.9428    4.6917 C.ar    1  UNL1        0.0869
     21 O          21.5218   72.2629    3.0740 O.2     1  UNL1       -0.2464
     22 O          21.4409   74.4820    6.9175 O.2     1  UNL1       -0.2670
     23 H          20.4852   73.1397    5.0986 H       1  UNL1        0.1734
     24 O          21.6666   70.2431   -3.3973 O.3     1  UNL1       -0.2703
     25 P          20.1884   70.8275   -3.1465 P.3     1  UNL1        0.2208
     26 O          20.2505   72.3028   -3.0541 O.2     1  UNL1       -0.5170
     27 O          19.5999   70.2288   -1.7727 O.3     1  UNL1       -0.4371
     28 O          19.2290   70.4063   -4.3682 O.3     1  UNL1       -0.2865
     29 C          18.7115   71.6161   -4.9250 C.3     1  UNL1        0.2611
     30 C          17.2253   71.4330   -5.2373 C.3     1  UNL1        0.1582
     31 C          17.0596   70.2700   -6.2219 C.3     1  UNL1        0.1625
     32 C          17.9548   70.5267   -7.4388 C.3     1  UNL1        0.1686
     33 C          19.3869   70.7751   -6.9604 C.3     1  UNL1        0.1760
     34 O          15.6950   70.1845   -6.6367 O.3     1  UNL1       -0.3801
     35 O          17.9282   69.3872   -8.3006 O.3     1  UNL1       -0.3794
     36 O          19.4216   71.9289   -6.1214 O.3     1  UNL1       -0.3263
     37 H          15.6364   69.4416   -7.2532 H       1  UNL1        0.2105
     38 H          18.5041   69.5907   -9.0512 H       1  UNL1        0.2105
     39 C          16.2782   69.8588   -3.6376 C.2     1  UNL1        0.2231
     40 C          15.5288   69.5545   -2.3656 C.3     1  UNL1        0.0946
     41 N          16.4978   71.1369   -4.0014 N.am    1  UNL1       -0.2994
     42 O          16.6831   68.9527   -4.3342 O.2     1  UNL1       -0.2751
     43 H          16.1737   71.8622   -3.4442 H       1  UNL1        0.1496
     44 C          20.2957   71.0005   -8.1706 C.3     1  UNL1        0.1693
     45 O          19.5004   71.3481   -9.3059 O.3     1  UNL1       -0.3794
     46 H          20.1099   71.4807  -10.0444 H       1  UNL1        0.2105
@<TRIPOS>BOND
     1    29    30    1
     2    29    28    1
     3    29    36    1
     4    30    31    1
     5    30    41    1
     6    31    32    1
     7    31    34    1
     8    32    33    1
     9    32    35    1
    10    33    44    1
    11    33    36    1
    12    44    45    1
    13    39    40    1
    14    39    41   am
    15    39    42    2
    16    41    43    1
    17    28    25    1
    18    34    37    1
    19    35    38    1
    20    45    46    1
    21    15    16   ar
    22    15    20   ar
    23    15     6    1
    24    16    17   ar
    25    16    21    2
    26    17    18   ar
    27    17    23    1
    28    18    19   ar
    29    18    22    2
    30    19    20   ar
    31     6     7    1
    32     6    11    1
    33     7     8    1
    34     7     9    1
    35     8    13    1
    36     9    10    1
    37     9    12    1
    38    10    11    1
    39    10     5    1
    40    12    14    1
    41     5     4    1
    42     4     1    1
    43     1     2    2
    44     1     3    1
    45     1    24    1
    46    24    25    1
    47    25    26    2
    48    25    27    1
@<TRIPOS>MOLECULE
UD1
 46 48 0 0 0
SMALL
GASTEIGER

@<TRIPOS>ATOM
      1 P          15.5980   71.1133   -2.0304 P.3     1  UNL1        0.2189
      2 O          15.9056   72.2524   -1.1380 O.2     1  UNL1       -0.5170
      3 O          15.5018   71.6336   -3.5511 O.3     1  UNL1       -0.4371
      4 O          14.1919   70.4582   -1.5984 O.3     1  UNL1       -0.3112
      5 C          14.4008   69.8260   -0.3346 C.3     1  UNL1        0.1811
      6 C          12.7079   67.1048    1.2952 C.3     1  UNL1        0.2383
      7 C          11.5771   68.0929    0.9142 C.3     1  UNL1        0.1895
      8 O          10.3575   67.3977    0.6524 O.3     1  UNL1       -0.3779
      9 C          12.1335   68.7410   -0.3803 C.3     1  UNL1        0.1713
     10 C          13.6522   68.4927   -0.3004 C.3     1  UNL1        0.1764
     11 O          13.9124   67.8177    0.9421 O.3     1  UNL1       -0.3308
     12 O          11.5768   68.1093   -1.5352 O.3     1  UNL1       -0.3794
     13 H           9.6976   68.0665    0.4228 H       1  UNL1        0.2106
     14 H          10.6212   68.2488   -1.4965 H       1  UNL1        0.2105
     15 N          12.6819   66.8136    2.7290 N.ar    1  UNL1       -0.2551
     16 C          12.6103   67.8240    3.6129 C.ar    1  UNL1        0.3323
     17 N          12.5810   67.5854    4.9375 N.ar    1  UNL1       -0.2743
     18 C          12.6326   66.3205    5.4014 C.ar    1  UNL1        0.2626
     19 C          12.7142   65.2476    4.4821 C.ar    1  UNL1        0.0795
     20 C          12.7367   65.5150    3.1587 C.ar    1  UNL1        0.0869
     21 O          12.5630   68.9703    3.2100 O.2     1  UNL1       -0.2464
     22 O          12.6110   66.1039    6.5989 O.2     1  UNL1       -0.2670
     23 H          12.5244   68.3261    5.5607 H       1  UNL1        0.1734
     24 O          16.7628   70.0094   -1.9126 O.3     1  UNL1       -0.2703
     25 P          17.0692   69.4957   -3.4064 P.3     1  UNL1        0.2208
     26 O          15.8109   69.0449   -4.0407 O.2     1  UNL1       -0.5170
     27 O          18.1102   68.2688   -3.3497 O.3     1  UNL1       -0.4371
     28 O          17.7043   70.6971   -4.2688 O.3     1  UNL1       -0.2865
     29 C          18.8932   70.1880   -4.8759 C.3     1  UNL1        0.2611
     30 C          20.0649   71.1148   -4.5469 C.3     1  UNL1        0.1582
     31 C          19.7519   72.5224   -5.0667 C.3     1  UNL1        0.1625
     32 C          19.3933   72.4273   -6.5535 C.3     1  UNL1        0.1686
     33 C          18.2699   71.4036   -6.7307 C.3     1  UNL1        0.1760
     34 O          20.8971   73.3603   -4.8996 O.3     1  UNL1       -0.3801
     35 O          18.9563   73.7043   -7.0224 O.3     1  UNL1       -0.3794
     36 O          18.7125   70.1209   -6.2887 O.3     1  UNL1       -0.3263
     37 H          20.6562   74.2335   -5.2385 H       1  UNL1        0.2105
     38 H          18.7405   73.5993   -7.9599 H       1  UNL1        0.2105
     39 C          21.5054   71.1067   -2.5824 C.2     1  UNL1        0.2231
     40 C          21.7073   71.1527   -1.0893 C.3     1  UNL1        0.0946
     41 N          20.2616   71.1600   -3.0965 N.am    1  UNL1       -0.2994
     42 O          22.4629   71.0209   -3.3213 O.2     1  UNL1       -0.2751
     43 H          19.4951   71.2284   -2.5054 H       1  UNL1        0.1496
     44 C          17.8819   71.3247   -8.2087 C.3     1  UNL1        0.1693
     45 O          17.0396   72.4305   -8.5401 O.3     1  UNL1       -0.3794
     46 H          16.8185   72.3429   -9.4771 H       1  UNL1        0.2105
@<TRIPOS>BOND
     1    29    30    1
     2    29    28    1
     3    29    36    1
     4    30    31    1
     5    30    41    1
     6    31    32    1
     7    31    34    1
     8    32    33    1
     9    32    35    1
    10    33    44    1
    11    33    36    1
    12    44    45    1
    13    39    40    1
    14    39    41   am
    15    39    42    2
    16    41    43    1
    17    28    25    1
    18    34    37    1
    19    35    38    1
    20    45    46    1
    21    15    16   ar
    22    15    20   ar
    23    15     6    1
    24    16    17   ar
    25    16    21    2
    26    17    18   ar
    27    17    23    1
    28    18    19   ar
    29    18    22    2
    30    19    20   ar
    31     6     7    1
    32     6    11    1
    33     7     8    1
    34     7     9    1
    35     8    13    1
    36     9    10    1
    37     9    12    1
    38    10    11    1
    39    10     5    1
    40    12    14    1
    41     5     4    1
    42     4     1    1
    43     1     2    2
    44     1     3    1
    45     1    24    1
    46    24    25    1
    47    25    26    2
    48    25    27    1
@<TRIPOS>MOLECULE
UD1
 46 48 0 0 0
SMALL
GASTEIGER

@<TRIPOS>ATOM
      1 P          21.6399   73.2426   -6.5177 P.3     1  UNL1        0.2189
      2 O          21.8655   74.6952   -6.6844 O.2     1  UNL1       -0.5170
      3 O          22.9633   72.4396   -6.9610 O.3     1  UNL1       -0.4371
      4 O          20.4012   72.7834   -7.4383 O.3     1  UNL1       -0.3112
      5 C          20.8257   71.6226   -8.1544 C.3     1  UNL1        0.1811
      6 C          17.8041   70.1138   -6.9213 C.3     1  UNL1        0.2383
      7 C          17.3248   71.1163   -8.0009 C.3     1  UNL1        0.1895
      8 O          16.1294   70.6554   -8.6316 O.3     1  UNL1       -0.3779
      9 C          18.5128   71.1138   -8.9979 C.3     1  UNL1        0.1713
     10 C          19.6987   70.5887   -8.1658 C.3     1  UNL1        0.1764
     11 O          19.2213   70.3711   -6.8272 O.3     1  UNL1       -0.3308
     12 O          18.2408   70.2430  -10.0981 O.3     1  UNL1       -0.3794
     13 H          15.8849   71.3213   -9.2892 H       1  UNL1        0.2106
     14 H          17.4555   70.5904  -10.5417 H       1  UNL1        0.2105
     15 N          17.1458   70.3755   -5.6408 N.ar    1  UNL1       -0.2551
     16 C          16.4645   69.3914   -5.0285 C.ar    1  UNL1        0.3323
     17 N          15.8526   69.6026   -3.8482 N.ar    1  UNL1       -0.2743
     18 C          15.9064   70.8158   -3.2624 C.ar    1  UNL1        0.2626
     19 C          16.6152   71.8623   -3.8989 C.ar    1  UNL1        0.0795
     20 C          17.2243   71.6216   -5.0798 C.ar    1  UNL1        0.0869
     21 O          16.4069   68.2918   -5.5444 O.2     1  UNL1       -0.2464
     22 O          15.3495   71.0091   -2.1975 O.2     1  UNL1       -0.2670
     23 H          15.3695   68.8800   -3.4184 H       1  UNL1        0.1734
     24 O          21.3092   72.9243   -4.9756 O.3     1  UNL1       -0.2703
     25 P          22.5829   73.4055   -4.1181 P.3     1  UNL1        0.2208
     26 O          22.9579   74.7789   -4.5205 O.2     1  UNL1       -0.5170
     27 O          23.8198   72.4111   -4.3889 O.3     1  UNL1       -0.4371
     28 O          22.2146   73.3871   -2.5514 O.3     1  UNL1       -0.2865
     29 C          23.2366   72.6357   -1.8941 C.3     1  UNL1        0.2611
     30 C          22.6196   71.3836   -1.2684 C.3     1  UNL1        0.1582
     31 C          21.5325   71.8044   -0.2731 C.3     1  UNL1        0.1625
     32 C          22.1379   72.8000    0.7221 C.3     1  UNL1        0.1686
     33 C          22.7887   73.9470   -0.0539 C.3     1  UNL1        0.1760
     34 O          21.0528   70.6547    0.4266 O.3     1  UNL1       -0.3801
     35 O          21.1083   73.3167    1.5675 O.3     1  UNL1       -0.3794
     36 O          23.8359   73.4378   -0.8789 O.3     1  UNL1       -0.3263
     37 H          20.3724   70.9646    1.0400 H       1  UNL1        0.2105
     38 H          21.5320   73.9383    2.1763 H       1  UNL1        0.2105
     39 C          20.7103   70.6371   -2.5843 C.2     1  UNL1        0.2231
     40 C          20.1017   69.7803   -3.6650 C.3     1  UNL1        0.0946
     41 N          22.0280   70.5519   -2.3184 N.am    1  UNL1       -0.2994
     42 O          20.0135   71.4031   -1.9535 O.2     1  UNL1       -0.2751
     43 H          22.5858   69.9388   -2.8229 H       1  UNL1        0.1496
     44 C          23.3683   74.9637    0.9317 C.3     1  UNL1        0.1693
     45 O          23.8152   74.2862    2.1079 O.3     1  UNL1       -0.3794
     46 H          24.1718   74.9612    2.7011 H       1  UNL1        0.2105
@<TRIPOS>BOND
     1    29    30    1
     2    29    28    1
     3    29    36    1
     4    30    31    1
     5    30    41    1
     6    31    32    1
     7    31    34    1
     8    32    33    1
     9    32    35    1
    10    33    44    1
    11    33    36    1
    12    44    45    1
    13    39    40    1
    14    39    41   am
    15    39    42    2
    16    41    43    1
    17    28    25    1
    18    34    37    1
    19    35    38    1
    20    45    46    1
    21    15    16   ar
    22    15    20   ar
    23    15     6    1
    24    16    17   ar
    25    16    21    2
    26    17    18   ar
    27    17    23    1
    28    18    19   ar
    29    18    22    2
    30    19    20   ar
    31     6     7    1
    32     6    11    1
    33     7     8    1
    34     7     9    1
    35     8    13    1
    36     9    10    1
    37     9    12    1
    38    10    11    1
    39    10     5    1
    40    12    14    1
    41     5     4    1
    42     4     1    1
    43     1     2    2
    44     1     3    1
    45     1    24    1
    46    24    25    1
    47    25    26    2
    48    25    27    1
@<TRIPOS>MOLECULE
UD1
 46 48 0 0 0
SMALL
GASTEIGER

@<TRIPOS>ATOM
      1 P          16.1862   69.6426   -2.7163 P.3     1  UNL1        0.2189
      2 O          15.8859   69.2417   -4.1084 O.2     1  UNL1       -0.5170
      3 O          16.8905   68.4173   -1.9449 O.3     1  UNL1       -0.4371
      4 O          14.8173   70.0334   -1.9638 O.3     1  UNL1       -0.3112
      5 C          14.9509   69.5991   -0.6096 C.3     1  UNL1        0.1811
      6 C          13.0193   67.4262    1.5058 C.3     1  UNL1        0.2383
      7 C          12.0662   68.6052    1.1867 C.3     1  UNL1        0.1895
      8 O          10.7057   68.1719    1.1679 O.3     1  UNL1       -0.3779
      9 C          12.5325   69.0264   -0.2312 C.3     1  UNL1        0.1713
     10 C          13.9631   68.4636   -0.3373 C.3     1  UNL1        0.1764
     11 O          14.2726   67.8371    0.9192 O.3     1  UNL1       -0.3308
     12 O          11.6859   68.4500   -1.2281 O.3     1  UNL1       -0.3794
     13 H          10.1669   68.9492    0.9652 H       1  UNL1        0.2106
     14 H          10.7963   68.7939   -1.0718 H       1  UNL1        0.2105
     15 N          13.1598   67.2484    2.9515 N.ar    1  UNL1       -0.2551
     16 C          13.0125   66.0254    3.4898 C.ar    1  UNL1        0.3323
     17 N          13.1401   65.8318    4.8159 N.ar    1  UNL1       -0.2743
     18 C          13.4104   66.8709    5.6314 C.ar    1  UNL1        0.2626
     19 C          13.5620   68.1649    5.0786 C.ar    1  UNL1        0.0795
     20 C          13.4342   68.3299    3.7445 C.ar    1  UNL1        0.0869
     21 O          12.7685   65.0782    2.7673 O.2     1  UNL1       -0.2464
     22 O          13.5213   66.6978    6.8310 O.2     1  UNL1       -0.2670
     23 H          13.0353   64.9419    5.1865 H       1  UNL1        0.1734
     24 O          17.1749   70.9120   -2.7248 O.3     1  UNL1       -0.2703
     25 P          18.4294   70.5179   -3.6523 P.3     1  UNL1        0.2208
     26 O          18.9483   69.1941   -3.2436 O.2     1  UNL1       -0.5170
     27 O          19.5888   71.6226   -3.4857 O.3     1  UNL1       -0.4371
     28 O          17.9630   70.4595   -5.1916 O.3     1  UNL1       -0.2865
     29 C          18.0636   71.7886   -5.7059 C.3     1  UNL1        0.2611
     30 C          16.7835   72.1330   -6.4692 C.3     1  UNL1        0.1582
     31 C          16.5926   71.1251   -7.6082 C.3     1  UNL1        0.1625
     32 C          17.8690   71.0954   -8.4555 C.3     1  UNL1        0.1686
     33 C          19.0671   70.8262   -7.5425 C.3     1  UNL1        0.1760
     34 O          15.4850   71.5225   -8.4187 O.3     1  UNL1       -0.3801
     35 O          17.7694   70.0587   -9.4337 O.3     1  UNL1       -0.3794
     36 O          19.1859   71.8743   -6.5814 O.3     1  UNL1       -0.3263
     37 H          15.4012   70.8622   -9.1204 H       1  UNL1        0.2105
     38 H          18.5920   70.0747   -9.9431 H       1  UNL1        0.2105
     39 C          15.3345   73.1238   -4.7802 C.2     1  UNL1        0.2231
     40 C          14.1554   73.0561   -3.8434 C.3     1  UNL1        0.0946
     41 N          15.6380   72.0679   -5.5594 N.am    1  UNL1       -0.2994
     42 O          16.0106   74.1290   -4.8321 O.2     1  UNL1       -0.2751
     43 H          15.0972   71.2633   -5.5178 H       1  UNL1        0.1496
     44 C          20.3436   70.7623   -8.3837 C.3     1  UNL1        0.1693
     45 O          21.4234   71.3524   -7.6572 O.3     1  UNL1       -0.3794
     46 H          22.2062   71.2920   -8.2212 H       1  UNL1        0.2105
@<TRIPOS>BOND
     1    29    30    1
     2    29    28    1
     3    29    36    1
     4    30    31    1
     5    30    41    1
     6    31    32    1
     7    31    34    1
     8    32    33    1
     9    32    35    1
    10    33    44    1
    11    33    36    1
    12    44    45    1
    13    39    40    1
    14    39    41   am
    15    39    42    2
    16    41    43    1
    17    28    25    1
    18    34    37    1
    19    35    38    1
    20    45    46    1
    21    15    16   ar
    22    15    20   ar
    23    15     6    1
    24    16    17   ar
    25    16    21    2
    26    17    18   ar
    27    17    23    1
    28    18    19   ar
    29    18    22    2
    30    19    20   ar
    31     6     7    1
    32     6    11    1
    33     7     8    1
    34     7     9    1
    35     8    13    1
    36     9    10    1
    37     9    12    1
    38    10    11    1
    39    10     5    1
    40    12    14    1
    41     5     4    1
    42     4     1    1
    43     1     2    2
    44     1     3    1
    45     1    24    1
    46    24    25    1
    47    25    26    2
    48    25    27    1
@<TRIPOS>MOLECULE
UD1
 46 48 0 0 0
SMALL
GASTEIGER

@<TRIPOS>ATOM
      1 P          17.2483   69.3878   -2.7949 P.3     1  UNL1        0.2189
      2 O          16.5825   70.4526   -3.5770 O.2     1  UNL1       -0.5170
      3 O          17.7504   68.2255   -3.7896 O.3     1  UNL1       -0.4371
      4 O          16.2065   68.7713   -1.7332 O.3     1  UNL1       -0.3112
      5 C          15.5508   69.8754   -1.1077 C.3     1  UNL1        0.1811
      6 C          12.5427   68.5157    0.3171 C.3     1  UNL1        0.2383
      7 C          12.6348   69.9485    0.8993 C.3     1  UNL1        0.1895
      8 O          11.3344   70.4855    1.1436 O.3     1  UNL1       -0.3779
      9 C          13.3461   70.7191   -0.2433 C.3     1  UNL1        0.1713
     10 C          14.0443   69.6155   -1.0612 C.3     1  UNL1        0.1764
     11 O          13.7842   68.3637   -0.4035 O.3     1  UNL1       -0.3308
     12 O          12.3914   71.4173   -1.0457 O.3     1  UNL1       -0.3794
     13 H          11.4614   71.3741    1.5038 H       1  UNL1        0.2106
     14 H          11.9479   72.0499   -0.4650 H       1  UNL1        0.2105
     15 N          12.4436   67.5248    1.3893 N.ar    1  UNL1       -0.2551
     16 C          13.5465   67.1665    2.0695 C.ar    1  UNL1        0.3323
     17 N          13.4842   66.2605    3.0632 N.ar    1  UNL1       -0.2743
     18 C          12.3076   65.6875    3.3876 C.ar    1  UNL1        0.2626
     19 C          11.1398   66.0511    2.6757 C.ar    1  UNL1        0.0795
     20 C          11.2298   66.9665    1.6871 C.ar    1  UNL1        0.0869
     21 O          14.6150   67.6745    1.7888 O.2     1  UNL1       -0.2464
     22 O          12.2509   64.8647    4.2827 O.2     1  UNL1       -0.2670
     23 H          14.2889   66.0174    3.5465 H       1  UNL1        0.1734
     24 O          18.5099   70.0067   -2.0111 O.3     1  UNL1       -0.2703
     25 P          19.6284   70.3389   -3.1192 P.3     1  UNL1        0.2208
     26 O          20.2188   69.0772   -3.6175 O.2     1  UNL1       -0.5170
     27 O          20.7831   71.2479   -2.4615 O.3     1  UNL1       -0.4371
     28 O          18.9526   71.1354   -4.3437 O.3     1  UNL1       -0.2865
     29 C          19.7252   70.8383   -5.5082 C.3     1  UNL1        0.2611
     30 C          20.3254   72.1327   -6.0597 C.3     1  UNL1        0.1582
     31 C          19.1914   73.1073   -6.3969 C.3     1  UNL1        0.1625
     32 C          18.1984   72.4012   -7.3262 C.3     1  UNL1        0.1686
     33 C          17.7562   71.0878   -6.6775 C.3     1  UNL1        0.1760
     34 O          19.7281   74.2589   -7.0504 O.3     1  UNL1       -0.3801
     35 O          17.0604   73.2395   -7.5352 O.3     1  UNL1       -0.3794
     36 O          18.8868   70.2369   -6.4924 O.3     1  UNL1       -0.3263
     37 H          18.9824   74.8436   -7.2435 H       1  UNL1        0.2105
     38 H          16.4621   72.7574   -8.1236 H       1  UNL1        0.2105
     39 C          22.5346   72.7801   -5.2631 C.2     1  UNL1        0.2231
     40 C          23.4395   73.3970   -4.2273 C.3     1  UNL1        0.0946
     41 N          21.2049   72.7324   -5.0541 N.am    1  UNL1       -0.2994
     42 O          23.0038   72.3257   -6.2847 O.2     1  UNL1       -0.2751
     43 H          20.8292   73.0957   -4.2365 H       1  UNL1        0.1496
     44 C          16.7392   70.3902   -7.5832 C.3     1  UNL1        0.1693
     45 O          17.0492   70.6676   -8.9503 O.3     1  UNL1       -0.3794
     46 H          16.3862   70.2111   -9.4857 H       1  UNL1        0.2105
@<TRIPOS>BOND
     1    29    30    1
     2    29    28    1
     3    29    36    1
     4    30    31    1
     5    30    41    1
     6    31    32    1
     7    31    34    1
     8    32    33    1
     9    32    35    1
    10    33    44    1
    11    33    36    1
    12    44    45    1
    13    39    40    1
    14    39    41   am
    15    39    42    2
    16    41    43    1
    17    28    25    1
    18    34    37    1
    19    35    38    1
    20    45    46    1
    21    15    16   ar
    22    15    20   ar
    23    15     6    1
    24    16    17   ar
    25    16    21    2
    26    17    18   ar
    27    17    23    1
    28    18    19   ar
    29    18    22    2
    30    19    20   ar
    31     6     7    1
    32     6    11    1
    33     7     8    1
    34     7     9    1
    35     8    13    1
    36     9    10    1
    37     9    12    1
    38    10    11    1
    39    10     5    1
    40    12    14    1
    41     5     4    1
    42     4     1    1
    43     1     2    2
    44     1     3    1
    45     1    24    1
    46    24    25    1
    47    25    26    2
    48    25    27    1
@<TRIPOS>MOLECULE
UD1
 46 48 0 0 0
SMALL
GASTEIGER

@<TRIPOS>ATOM
      1 P          22.9526   71.6010   -2.8705 P.3     1  UNL1        0.2189
      2 O          24.2038   70.8680   -3.1635 O.2     1  UNL1       -0.5170
      3 O          22.7993   72.8328   -3.8962 O.3     1  UNL1       -0.4371
      4 O          23.0010   72.1628   -1.3622 O.3     1  UNL1       -0.3112
      5 C          24.0894   71.5061   -0.7107 C.3     1  UNL1        0.1811
      6 C          23.4729   71.9256    2.8065 C.3     1  UNL1        0.2383
      7 C          22.1155   72.2489    2.1332 C.3     1  UNL1        0.1895
      8 O          21.0254   71.9003    2.9873 O.3     1  UNL1       -0.3779
      9 C          22.1491   71.3376    0.8788 C.3     1  UNL1        0.1713
     10 C          23.6464   71.0355    0.6754 C.3     1  UNL1        0.1764
     11 O          24.3708   71.7522    1.6898 O.3     1  UNL1       -0.3308
     12 O          21.4167   70.1333    1.1155 O.3     1  UNL1       -0.3794
     13 H          20.2139   72.1258    2.5119 H       1  UNL1        0.2106
     14 H          20.5031   70.3926    1.2944 H       1  UNL1        0.2105
     15 N          23.9104   73.0363    3.6530 N.ar    1  UNL1       -0.2551
     16 C          25.0846   73.6416    3.4037 C.ar    1  UNL1        0.3323
     17 N          25.5103   74.6682    4.1634 N.ar    1  UNL1       -0.2743
     18 C          24.7641   75.1021    5.1992 C.ar    1  UNL1        0.2626
     19 C          23.5286   74.4700    5.4765 C.ar    1  UNL1        0.0795
     20 C          23.1232   73.4460    4.6952 C.ar    1  UNL1        0.0869
     21 O          25.7688   73.2617    2.4730 O.2     1  UNL1       -0.2464
     22 O          25.1502   76.0271    5.8896 O.2     1  UNL1       -0.2670
     23 H          26.3577   75.0962    3.9662 H       1  UNL1        0.1734
     24 O          21.6977   70.6071   -3.0327 O.3     1  UNL1       -0.2703
     25 P          20.4079   71.3921   -2.4764 P.3     1  UNL1        0.2208
     26 O          20.8334   72.6738   -1.8721 O.2     1  UNL1       -0.5170
     27 O          19.6707   70.4932   -1.3626 O.3     1  UNL1       -0.4371
     28 O          19.3904   71.6824   -3.6892 O.3     1  UNL1       -0.2865
     29 C          19.5961   70.6528   -4.6582 C.3     1  UNL1        0.2611
     30 C          19.5605   71.2642   -6.0599 C.3     1  UNL1        0.1582
     31 C          18.2049   71.9466   -6.2749 C.3     1  UNL1        0.1625
     32 C          17.0938   70.9343   -5.9767 C.3     1  UNL1        0.1686
     33 C          17.3138   70.3500   -4.5797 C.3     1  UNL1        0.1760
     34 O          18.1018   72.3907   -7.6290 O.3     1  UNL1       -0.3801
     35 O          15.8247   71.5887   -6.0281 O.3     1  UNL1       -0.3794
     36 O          18.5686   69.6720   -4.5328 O.3     1  UNL1       -0.3263
     37 H          17.2364   72.8130   -7.7194 H       1  UNL1        0.2105
     38 H          15.1556   70.9170   -5.8342 H       1  UNL1        0.2105
     39 C          21.3130   72.3606   -7.3487 C.2     1  UNL1        0.2231
     40 C          22.4176   73.3775   -7.4828 C.3     1  UNL1        0.0946
     41 N          20.6334   72.2522   -6.1908 N.am    1  UNL1       -0.2994
     42 O          21.0363   71.6393   -8.2832 O.2     1  UNL1       -0.2751
     43 H          20.8547   72.8292   -5.4428 H       1  UNL1        0.1496
     44 C          16.1908   69.3615   -4.2591 C.3     1  UNL1        0.1693
     45 O          15.9000   68.5780   -5.4182 O.3     1  UNL1       -0.3794
     46 H          15.1890   67.9702   -5.1740 H       1  UNL1        0.2105
@<TRIPOS>BOND
     1    29    30    1
     2    29    28    1
     3    29    36    1
     4    30    31    1
     5    30    41    1
     6    31    32    1
     7    31    34    1
     8    32    33    1
     9    32    35    1
    10    33    44    1
    11    33    36    1
    12    44    45    1
    13    39    40    1
    14    39    41   am
    15    39    42    2
    16    41    43    1
    17    28    25    1
    18    34    37    1
    19    35    38    1
    20    45    46    1
    21    15    16   ar
    22    15    20   ar
    23    15     6    1
    24    16    17   ar
    25    16    21    2
    26    17    18   ar
    27    17    23    1
    28    18    19   ar
    29    18    22    2
    30    19    20   ar
    31     6     7    1
    32     6    11    1
    33     7     8    1
    34     7     9    1
    35     8    13    1
    36     9    10    1
    37     9    12    1
    38    10    11    1
    39    10     5    1
    40    12    14    1
    41     5     4    1
    42     4     1    1
    43     1     2    2
    44     1     3    1
    45     1    24    1
    46    24    25    1
    47    25    26    2
    48    25    27    1
@<TRIPOS>MOLECULE
UD1
 46 48 0 0 0
SMALL
GASTEIGER

@<TRIPOS>ATOM
      1 P          22.9041   72.3756   -3.3981 P.3     1  UNL1        0.2189
      2 O          24.2216   72.2288   -4.0550 O.2     1  UNL1       -0.5170
      3 O          23.1020   72.4136   -1.8007 O.3     1  UNL1       -0.4371
      4 O          21.9666   71.1271   -3.7922 O.3     1  UNL1       -0.3112
      5 C          21.1063   70.8875   -2.6773 C.3     1  UNL1        0.1811
      6 C          18.4118   70.7479   -5.0538 C.3     1  UNL1        0.2383
      7 C          18.3995   69.3573   -4.3709 C.3     1  UNL1        0.1895
      8 O          17.0763   68.8223   -4.3245 O.3     1  UNL1       -0.3779
      9 C          18.9122   69.6900   -2.9455 C.3     1  UNL1        0.1713
     10 C          19.6485   71.0328   -3.1164 C.3     1  UNL1        0.1764
     11 O          19.5900   71.3805   -4.5103 O.3     1  UNL1       -0.3308
     12 O          17.8161   69.8249   -2.0383 O.3     1  UNL1       -0.3794
     13 H          17.1378   67.9602   -3.8904 H       1  UNL1        0.2106
     14 H          17.3616   68.9721   -2.0206 H       1  UNL1        0.2105
     15 N          18.5225   70.6122   -6.5066 N.ar    1  UNL1       -0.2551
     16 C          17.4108   70.4716   -7.2493 C.ar    1  UNL1        0.3323
     17 N          17.4824   70.3487   -8.5879 N.ar    1  UNL1       -0.2743
     18 C          18.6797   70.3554   -9.2078 C.ar    1  UNL1        0.2626
     19 C          19.8585   70.4967   -8.4375 C.ar    1  UNL1        0.0795
     20 C          19.7575   70.6236   -7.0969 C.ar    1  UNL1        0.0869
     21 O          16.3235   70.4637   -6.7048 O.2     1  UNL1       -0.2464
     22 O          18.7460   70.2396  -10.4176 O.2     1  UNL1       -0.2670
     23 H          16.6699   70.2529   -9.1085 H       1  UNL1        0.1734
     24 O          22.2102   73.7426   -3.8866 O.3     1  UNL1       -0.2703
     25 P          22.5033   73.8752   -5.4632 P.3     1  UNL1        0.2208
     26 O          21.2801   74.3379   -6.1550 O.2     1  UNL1       -0.5170
     27 O          22.9415   72.4417   -6.0508 O.3     1  UNL1       -0.4371
     28 O          23.6892   74.9368   -5.7025 O.3     1  UNL1       -0.2865
     29 C          23.1560   75.9751   -6.5264 C.3     1  UNL1        0.2611
     30 C          24.1495   76.2924   -7.6454 C.3     1  UNL1        0.1582
     31 C          25.4825   76.7250   -7.0244 C.3     1  UNL1        0.1625
     32 C          25.2169   77.8721   -6.0437 C.3     1  UNL1        0.1686
     33 C          24.1448   77.4345   -5.0435 C.3     1  UNL1        0.1760
     34 O          26.3694   77.1665   -8.0539 O.3     1  UNL1       -0.3801
     35 O          26.4216   78.1926   -5.3455 O.3     1  UNL1       -0.3794
     36 O          22.9318   77.1400   -5.7350 O.3     1  UNL1       -0.3263
     37 H          27.1931   77.4282   -7.6198 H       1  UNL1        0.2105
     38 H          26.2097   78.9169   -4.7397 H       1  UNL1        0.2105
     39 C          24.4274   75.2101   -9.8100 C.2     1  UNL1        0.2231
     40 C          24.6399   73.9820  -10.6580 C.3     1  UNL1        0.0946
     41 N          24.3564   75.0997   -8.4695 N.am    1  UNL1       -0.2994
     42 O          24.3197   76.2978  -10.3347 O.2     1  UNL1       -0.2751
     43 H          24.4424   74.2293   -8.0494 H       1  UNL1        0.1496
     44 C          23.8954   78.5617   -4.0393 C.3     1  UNL1        0.1693
     45 O          24.7974   78.4282   -2.9390 O.3     1  UNL1       -0.3794
     46 H          24.6071   79.1556   -2.3313 H       1  UNL1        0.2105
@<TRIPOS>BOND
     1    29    30    1
     2    29    28    1
     3    29    36    1
     4    30    31    1
     5    30    41    1
     6    31    32    1
     7    31    34    1
     8    32    33    1
     9    32    35    1
    10    33    44    1
    11    33    36    1
    12    44    45    1
    13    39    40    1
    14    39    41   am
    15    39    42    2
    16    41    43    1
    17    28    25    1
    18    34    37    1
    19    35    38    1
    20    45    46    1
    21    15    16   ar
    22    15    20   ar
    23    15     6    1
    24    16    17   ar
    25    16    21    2
    26    17    18   ar
    27    17    23    1
    28    18    19   ar
    29    18    22    2
    30    19    20   ar
    31     6     7    1
    32     6    11    1
    33     7     8    1
    34     7     9    1
    35     8    13    1
    36     9    10    1
    37     9    12    1
    38    10    11    1
    39    10     5    1
    40    12    14    1
    41     5     4    1
    42     4     1    1
    43     1     2    2
    44     1     3    1
    45     1    24    1
    46    24    25    1
    47    25    26    2
    48    25    27    1
@<TRIPOS>MOLECULE
UD1
 46 48 0 0 0
SMALL
GASTEIGER

@<TRIPOS>ATOM
      1 P          21.7817   72.9429   -5.2859 P.3     1  UNL1        0.2189
      2 O          23.0349   72.5109   -5.9429 O.2     1  UNL1       -0.5170
      3 O          21.9397   74.4615   -4.7746 O.3     1  UNL1       -0.4371
      4 O          21.4770   71.9835   -4.0291 O.3     1  UNL1       -0.3112
      5 C          22.7307   71.7166   -3.3986 C.3     1  UNL1        0.1811
      6 C          23.1139   71.1535    0.1317 C.3     1  UNL1        0.2383
      7 C          21.8150   71.9890    0.0107 C.3     1  UNL1        0.1895
      8 O          20.8999   71.6660    1.0584 O.3     1  UNL1       -0.3779
      9 C          21.2629   71.5352   -1.3657 C.3     1  UNL1        0.1713
     10 C          22.4941   70.9589   -2.0913 C.3     1  UNL1        0.1764
     11 O          23.6243   71.1253   -1.2182 O.3     1  UNL1       -0.3308
     12 O          20.2590   70.5321   -1.1961 O.3     1  UNL1       -0.3794
     13 H          20.1167   72.2179    0.9264 H       1  UNL1        0.2106
     14 H          19.5445   70.9357   -0.6855 H       1  UNL1        0.2105
     15 N          24.0680   71.8038    1.0308 N.ar    1  UNL1       -0.2551
     16 C          24.8471   71.0548    1.8304 C.ar    1  UNL1        0.3323
     17 N          25.7362   71.6258    2.6644 N.ar    1  UNL1       -0.2743
     18 C          25.8531   72.9680    2.7175 C.ar    1  UNL1        0.2626
     19 C          25.0349   73.7687    1.8855 C.ar    1  UNL1        0.0795
     20 C          24.1553   73.1697    1.0544 C.ar    1  UNL1        0.0869
     21 O          24.7533   69.8430    1.7939 O.2     1  UNL1       -0.2464
     22 O          26.6533   73.4855    3.4746 O.2     1  UNL1       -0.2670
     23 H          26.2935   71.0700    3.2307 H       1  UNL1        0.1734
     24 O          20.5664   72.8530   -6.3364 O.3     1  UNL1       -0.2703
     25 P          19.2569   72.4388   -5.4980 P.3     1  UNL1        0.2208
     26 O          19.3394   73.0152   -4.1379 O.2     1  UNL1       -0.5170
     27 O          19.1695   70.8344   -5.3957 O.3     1  UNL1       -0.4371
     28 O          17.9434   73.0001   -6.2398 O.3     1  UNL1       -0.2865
     29 C          17.0608   71.8905   -6.4160 C.3     1  UNL1        0.2611
     30 C          16.4706   71.9337   -7.8266 C.3     1  UNL1        0.1582
     31 C          15.7206   73.2570   -8.0159 C.3     1  UNL1        0.1625
     32 C          14.7048   73.4116   -6.8790 C.3     1  UNL1        0.1686
     33 C          15.4289   73.2600   -5.5396 C.3     1  UNL1        0.1760
     34 O          15.0403   73.2464   -9.2722 O.3     1  UNL1       -0.3801
     35 O          14.0982   74.7032   -6.9525 O.3     1  UNL1       -0.3794
     36 O          16.0128   71.9608   -5.4516 O.3     1  UNL1       -0.3263
     37 H          14.5834   74.0953   -9.3498 H       1  UNL1        0.2105
     38 H          13.4680   74.7583   -6.2201 H       1  UNL1        0.2105
     39 C          18.0940   70.6379   -9.0993 C.2     1  UNL1        0.2231
     40 C          19.2046   70.5377  -10.1136 C.3     1  UNL1        0.0946
     41 N          17.5492   71.8358   -8.8122 N.am    1  UNL1       -0.2994
     42 O          17.6910   69.6398   -8.5411 O.2     1  UNL1       -0.2751
     43 H          17.8717   72.6347   -9.2586 H       1  UNL1        0.1496
     44 C          14.4287   73.4450   -4.3967 C.3     1  UNL1        0.1693
     45 O          14.3329   72.2329   -3.6460 O.3     1  UNL1       -0.3794
     46 H          13.6942   72.3920   -2.9379 H       1  UNL1        0.2105
@<TRIPOS>BOND
     1    29    30    1
     2    29    28    1
     3    29    36    1
     4    30    31    1
     5    30    41    1
     6    31    32    1
     7    31    34    1
     8    32    33    1
     9    32    35    1
    10    33    44    1
    11    33    36    1
    12    44    45    1
    13    39    40    1
    14    39    41   am
    15    39    42    2
    16    41    43    1
    17    28    25    1
    18    34    37    1
    19    35    38    1
    20    45    46    1
    21    15    16   ar
    22    15    20   ar
    23    15     6    1
    24    16    17   ar
    25    16    21    2
    26    17    18   ar
    27    17    23    1
    28    18    19   ar
    29    18    22    2
    30    19    20   ar
    31     6     7    1
    32     6    11    1
    33     7     8    1
    34     7     9    1
    35     8    13    1
    36     9    10    1
    37     9    12    1
    38    10    11    1
    39    10     5    1
    40    12    14    1
    41     5     4    1
    42     4     1    1
    43     1     2    2
    44     1     3    1
    45     1    24    1
    46    24    25    1
    47    25    26    2
    48    25    27    1
