@<TRIPOS>MOLECULE
UD2
 46 48 0 0 0
SMALL
GASTEIGER

@<TRIPOS>ATOM
      1 P          21.4800   71.6864   -2.6462 P.3     1  UNL1        0.2189
      2 O          22.6684   70.6403   -2.9375 O.3     1  UNL1       -0.4371
      3 O          21.8234   73.0001   -3.2340 O.2     1  UNL1       -0.5170
      4 O          20.1143   71.1440   -3.3052 O.3     1  UNL1       -0.3112
      5 C          18.9827   70.7441   -2.5299 C.3     1  UNL1        0.1811
      6 C          17.1885   70.5504   -5.6412 C.3     1  UNL1        0.2383
      7 C          17.1213   69.1142   -5.0625 C.3     1  UNL1        0.1895
      8 O          15.9153   68.4596   -5.4612 O.3     1  UNL1       -0.3779
      9 C          17.1284   69.3776   -3.5367 C.3     1  UNL1        0.1713
     10 C          17.7253   70.7914   -3.4015 C.3     1  UNL1        0.1764
     11 O          18.0634   71.2414   -4.7231 O.3     1  UNL1       -0.3308
     12 O          15.7976   69.3443   -3.0185 O.3     1  UNL1       -0.3794
     13 H          15.8272   67.5577   -5.1244 H       1  UNL1        0.2106
     14 H          15.3521   68.4938   -3.1306 H       1  UNL1        0.2105
     15 N          17.7611   70.5372   -6.9891 N.ar    1  UNL1       -0.2551
     16 C          16.9491   70.4443   -8.0572 C.ar    1  UNL1        0.3323
     17 N          17.4479   70.4297   -9.3075 N.ar    1  UNL1       -0.2743
     18 C          18.7789   70.5105   -9.5082 C.ar    1  UNL1        0.2626
     19 C          19.6453   70.6098   -8.3930 C.ar    1  UNL1        0.0795
     20 C          19.1175   70.6265   -7.1509 C.ar    1  UNL1        0.0869
     21 O          15.7468   70.3709   -7.8912 O.2     1  UNL1       -0.2464
     22 O          19.2316   70.4978  -10.6393 O.2     1  UNL1       -0.2670
     23 H          16.8483   70.3610  -10.0664 H       1  UNL1        0.1734
     24 O          21.2819   71.8449   -1.0560 O.3     1  UNL1       -0.2703
     25 P          22.1449   71.3983    0.2280 P.3     1  UNL1        0.2208
     26 O          21.4916   70.0788    0.8806 O.3     1  UNL1       -0.4371
     27 O          23.5340   71.1061   -0.1882 O.2     1  UNL1       -0.5170
     28 O          22.1482   72.5885    1.3126 O.3     1  UNL1       -0.2865
     29 C          22.7225   73.8718    1.0583 C.3     1  UNL1        0.2611
     30 C          23.4612   74.3579    2.3076 C.3     1  UNL1        0.1582
     31 C          22.4579   74.5163    3.4542 C.3     1  UNL1        0.1625
     32 C          21.3521   75.4826    3.0208 C.3     1  UNL1        0.1686
     33 C          20.6945   74.9529    1.7437 C.3     1  UNL1        0.1760
     34 O          23.1262   75.0400    4.6042 O.3     1  UNL1       -0.3801
     35 O          21.9154   76.7713    2.7695 O.3     1  UNL1       -0.3794
     36 O          21.6870   74.7994    0.7272 O.3     1  UNL1       -0.3263
     37 H          22.5497   75.1654    5.3704 H       1  UNL1        0.2105
     38 H          21.2702   77.4355    2.4892 H       1  UNL1        0.2105
     39 C          25.7877   73.7171    2.6459 C.2     1  UNL1        0.2231
     40 C          26.8396   72.7108    3.0325 C.3     1  UNL1        0.0946
     41 N          24.4838   73.3784    2.6836 N.am    1  UNL1       -0.2994
     42 O          26.1139   74.8334    2.3002 O.2     1  UNL1       -0.2751
     43 H          24.2226   72.4857    2.9590 H       1  UNL1        0.1496
     44 C          19.6285   75.9431    1.2708 C.3     1  UNL1        0.1693
     45 O          20.2130   76.8724    0.3559 O.3     1  UNL1       -0.3794
     46 H          19.5934   77.5316    0.0144 H       1  UNL1        0.2105
@<TRIPOS>BOND
     1    29    30    1
     2    30    41    1
     3    30    31    1
     4    31    34    1
     5    31    32    1
     6    32    35    1
     7    32    33    1
     8    33    36    1
     9    33    44    1
    10    39    40    1
    11    39    42    2
    12    39    41   am
    13    41    43    1
    14    29    28    1
    15    34    37    1
    16    35    38    1
    17    29    36    1
    18    44    45    1
    19    45    46    1
    20    15     6    1
    21    15    16   ar
    22    16    21    2
    23    16    17   ar
    24    17    23    1
    25    17    18   ar
    26    18    19   ar
    27    19    20   ar
    28    15    20   ar
    29    18    22    2
    30     6     7    1
    31     6    11    1
    32     7     9    1
    33     7     8    1
    34     8    13    1
    35     9    10    1
    36     9    12    1
    37    10     5    1
    38    10    11    1
    39    12    14    1
    40     5     4    1
    41     4     1    1
    42     1     2    1
    43     1    24    1
    44     1     3    2
    45    24    25    1
    46    28    25    1
    47    25    26    1
    48    25    27    2
@<TRIPOS>MOLECULE
UD2
 46 48 0 0 0
SMALL
GASTEIGER

@<TRIPOS>ATOM
      1 P          20.8008   71.0004   -3.0604 P.3     1  UNL1        0.2189
      2 O          21.0440   70.4372   -1.5721 O.3     1  UNL1       -0.4371
      3 O          20.8556   69.8817   -4.0270 O.2     1  UNL1       -0.5170
      4 O          19.3552   71.7061   -3.1374 O.3     1  UNL1       -0.3112
      5 C          18.2055   71.1986   -2.4576 C.3     1  UNL1        0.1811
      6 C          16.8198   70.6153   -5.7251 C.3     1  UNL1        0.2383
      7 C          16.9054   69.2081   -5.0812 C.3     1  UNL1        0.1895
      8 O          15.8639   68.3599   -5.5687 O.3     1  UNL1       -0.3779
      9 C          16.7023   69.5248   -3.5792 C.3     1  UNL1        0.1713
     10 C          17.0606   71.0182   -3.4575 C.3     1  UNL1        0.1764
     11 O          17.4726   71.4668   -4.7584 O.3     1  UNL1       -0.3308
     12 O          15.3422   69.3039   -3.2023 O.3     1  UNL1       -0.3794
     13 H          15.8756   67.4681   -5.1955 H       1  UNL1        0.2106
     14 H          15.0452   68.3909   -3.3151 H       1  UNL1        0.2105
     15 N          17.5348   70.6422   -7.0030 N.ar    1  UNL1       -0.2551
     16 C          16.8489   70.5171   -8.1531 C.ar    1  UNL1        0.3323
     17 N          17.4802   70.5381   -9.3419 N.ar    1  UNL1       -0.2743
     18 C          18.8192   70.6879   -9.3968 C.ar    1  UNL1        0.2626
     19 C          19.5536   70.8216   -8.1940 C.ar    1  UNL1        0.0795
     20 C          18.8944   70.8013   -7.0165 C.ar    1  UNL1        0.0869
     21 O          15.6411   70.3817   -8.1187 O.2     1  UNL1       -0.2464
     22 O          19.3917   70.7074  -10.4722 O.2     1  UNL1       -0.2670
     23 H          16.9706   70.4454  -10.1616 H       1  UNL1        0.1734
     24 O          21.9428   72.0774   -3.4201 O.3     1  UNL1       -0.2703
     25 P          23.5331   72.1441   -3.1763 P.3     1  UNL1        0.2208
     26 O          24.1325   70.6499   -3.1363 O.3     1  UNL1       -0.4371
     27 O          24.1698   72.9011   -4.2762 O.2     1  UNL1       -0.5170
     28 O          23.8307   72.8799   -1.7753 O.3     1  UNL1       -0.2865
     29 C          22.9035   73.7698   -1.1510 C.3     1  UNL1        0.2611
     30 C          23.6691   74.8744   -0.4187 C.3     1  UNL1        0.1582
     31 C          24.5250   74.2452    0.6850 C.3     1  UNL1        0.1625
     32 C          23.6190   73.4454    1.6252 C.3     1  UNL1        0.1686
     33 C          22.8552   72.3955    0.8139 C.3     1  UNL1        0.1760
     34 O          25.1869   75.2759    1.4217 O.3     1  UNL1       -0.3801
     35 O          22.6912   74.3276    2.2594 O.3     1  UNL1       -0.3794
     36 O          22.1043   73.0442   -0.2144 O.3     1  UNL1       -0.3263
     37 H          25.7483   74.9484    2.1377 H       1  UNL1        0.2105
     38 H          22.0837   73.8875    2.8703 H       1  UNL1        0.2105
     39 C          24.6421   76.9231   -1.3097 C.2     1  UNL1        0.2231
     40 C          25.5317   77.6503   -2.2836 C.3     1  UNL1        0.0946
     41 N          24.5345   75.5810   -1.3665 N.am    1  UNL1       -0.2994
     42 O          24.0216   77.5457   -0.4733 O.2     1  UNL1       -0.2751
     43 H          25.0296   75.0830   -2.0357 H       1  UNL1        0.1496
     44 C          21.9034   71.6318    1.7364 C.3     1  UNL1        0.1693
     45 O          21.6117   70.3533    1.1682 O.3     1  UNL1       -0.3794
     46 H          21.0122   69.8131    1.7008 H       1  UNL1        0.2105
@<TRIPOS>BOND
     1    29    30    1
     2    30    41    1
     3    30    31    1
     4    31    34    1
     5    31    32    1
     6    32    35    1
     7    32    33    1
     8    33    36    1
     9    33    44    1
    10    39    40    1
    11    39    42    2
    12    39    41   am
    13    41    43    1
    14    29    28    1
    15    34    37    1
    16    35    38    1
    17    29    36    1
    18    44    45    1
    19    45    46    1
    20    15     6    1
    21    15    16   ar
    22    16    21    2
    23    16    17   ar
    24    17    23    1
    25    17    18   ar
    26    18    19   ar
    27    19    20   ar
    28    15    20   ar
    29    18    22    2
    30     6     7    1
    31     6    11    1
    32     7     9    1
    33     7     8    1
    34     8    13    1
    35     9    10    1
    36     9    12    1
    37    10     5    1
    38    10    11    1
    39    12    14    1
    40     5     4    1
    41     4     1    1
    42     1     2    1
    43     1    24    1
    44     1     3    2
    45    24    25    1
    46    28    25    1
    47    25    26    1
    48    25    27    2
@<TRIPOS>MOLECULE
UD2
 46 48 0 0 0
SMALL
GASTEIGER

@<TRIPOS>ATOM
      1 P          20.5133   72.3939   -1.5785 P.3     1  UNL1        0.2189
      2 O          21.0266   73.8125   -2.1403 O.3     1  UNL1       -0.4371
      3 O          19.6142   72.6157   -0.4246 O.2     1  UNL1       -0.5170
      4 O          19.7145   71.6144   -2.7394 O.3     1  UNL1       -0.3112
      5 C          18.8375   70.5172   -2.4774 C.3     1  UNL1        0.1811
      6 C          17.1085   70.4847   -5.6311 C.3     1  UNL1        0.2383
      7 C          16.9951   69.0297   -5.1095 C.3     1  UNL1        0.1895
      8 O          15.7834   68.4198   -5.5585 O.3     1  UNL1       -0.3779
      9 C          16.9747   69.2349   -3.5749 C.3     1  UNL1        0.1713
     10 C          17.6011   70.6278   -3.3730 C.3     1  UNL1        0.1764
     11 O          17.9787   71.1191   -4.6689 O.3     1  UNL1       -0.3308
     12 O          15.6323   69.2141   -3.0867 O.3     1  UNL1       -0.3794
     13 H          15.6669   67.5082   -5.2584 H       1  UNL1        0.2106
     14 H          15.1698   68.3794   -3.2408 H       1  UNL1        0.2105
     15 N          17.7103   70.5087   -6.9661 N.ar    1  UNL1       -0.2551
     16 C          16.9212   70.4535   -8.0539 C.ar    1  UNL1        0.3323
     17 N          17.4471   70.4737   -9.2929 N.ar    1  UNL1       -0.2743
     18 C          18.7827   70.5519   -9.4623 C.ar    1  UNL1        0.2626
     19 C          19.6250   70.6117   -8.3261 C.ar    1  UNL1        0.0795
     20 C          19.0704   70.5940   -7.0958 C.ar    1  UNL1        0.0869
     21 O          15.7152   70.3829   -7.9163 O.2     1  UNL1       -0.2464
     22 O          19.2598   70.5706  -10.5832 O.2     1  UNL1       -0.2670
     23 H          16.8639   70.4319  -10.0664 H       1  UNL1        0.1734
     24 O          21.7774   71.5117   -1.1125 O.3     1  UNL1       -0.2703
     25 P          22.4662   71.2102    0.3115 P.3     1  UNL1        0.2208
     26 O          21.6804   70.0101    1.0437 O.3     1  UNL1       -0.4371
     27 O          23.8781   70.8205    0.1042 O.2     1  UNL1       -0.5170
     28 O          22.4029   72.5321    1.2287 O.3     1  UNL1       -0.2865
     29 C          22.5180   72.4979    2.6524 C.3     1  UNL1        0.2611
     30 C          22.0201   73.8217    3.2375 C.3     1  UNL1        0.1582
     31 C          22.9067   74.9615    2.7264 C.3     1  UNL1        0.1625
     32 C          24.3617   74.6707    3.1042 C.3     1  UNL1        0.1686
     33 C          24.7695   73.3139    2.5240 C.3     1  UNL1        0.1760
     34 O          22.4945   76.1921    3.3255 O.3     1  UNL1       -0.3801
     35 O          24.4889   74.6401    4.5269 O.3     1  UNL1       -0.3794
     36 O          23.8867   72.3031    3.0147 O.3     1  UNL1       -0.3263
     37 H          23.0135   76.9586    3.0456 H       1  UNL1        0.2105
     38 H          25.3868   74.4596    4.8384 H       1  UNL1        0.2105
     39 C          19.7323   74.5209    3.7009 C.2     1  UNL1        0.2231
     40 C          18.3088   74.7584    3.2699 C.3     1  UNL1        0.0946
     41 N          20.6355   74.0523    2.8174 N.am    1  UNL1       -0.2994
     42 O          20.0665   74.7513    4.8444 O.2     1  UNL1       -0.2751
     43 H          20.3685   73.8669    1.9034 H       1  UNL1        0.1496
     44 C          26.2032   72.9886    2.9473 C.3     1  UNL1        0.1693
     45 O          26.4891   71.6200    2.6515 O.3     1  UNL1       -0.3794
     46 H          27.3833   71.3431    2.8940 H       1  UNL1        0.2105
@<TRIPOS>BOND
     1    29    30    1
     2    30    41    1
     3    30    31    1
     4    31    34    1
     5    31    32    1
     6    32    35    1
     7    32    33    1
     8    33    36    1
     9    33    44    1
    10    39    40    1
    11    39    42    2
    12    39    41   am
    13    41    43    1
    14    29    28    1
    15    34    37    1
    16    35    38    1
    17    29    36    1
    18    44    45    1
    19    45    46    1
    20    15     6    1
    21    15    16   ar
    22    16    21    2
    23    16    17   ar
    24    17    23    1
    25    17    18   ar
    26    18    19   ar
    27    19    20   ar
    28    15    20   ar
    29    18    22    2
    30     6     7    1
    31     6    11    1
    32     7     9    1
    33     7     8    1
    34     8    13    1
    35     9    10    1
    36     9    12    1
    37    10     5    1
    38    10    11    1
    39    12    14    1
    40     5     4    1
    41     4     1    1
    42     1     2    1
    43     1    24    1
    44     1     3    2
    45    24    25    1
    46    28    25    1
    47    25    26    1
    48    25    27    2
@<TRIPOS>MOLECULE
UD2
 46 48 0 0 0
SMALL
GASTEIGER

@<TRIPOS>ATOM
      1 P          23.2759   71.7399   -2.4143 P.3     1  UNL1        0.2189
      2 O          23.1607   72.9918   -3.4198 O.3     1  UNL1       -0.4371
      3 O          24.2071   70.7378   -2.9779 O.2     1  UNL1       -0.5170
      4 O          23.8297   72.2456   -0.9891 O.3     1  UNL1       -0.3112
      5 C          23.8545   71.4160    0.1738 C.3     1  UNL1        0.1811
      6 C          25.3652   73.1529    2.9374 C.3     1  UNL1        0.2383
      7 C          25.2917   74.2098    1.8061 C.3     1  UNL1        0.1895
      8 O          25.1326   75.5235    2.3450 O.3     1  UNL1       -0.3779
      9 C          24.0230   73.7721    1.0340 C.3     1  UNL1        0.1713
     10 C          23.8340   72.2945    1.4271 C.3     1  UNL1        0.1764
     11 O          24.9250   71.9387    2.2912 O.3     1  UNL1       -0.3308
     12 O          22.8962   74.5477    1.4455 O.3     1  UNL1       -0.3794
     13 H          25.0822   76.2198    1.6762 H       1  UNL1        0.2106
     14 H          22.9866   75.4950    1.2756 H       1  UNL1        0.2105
     15 N          26.7400   73.0107    3.4219 N.ar    1  UNL1       -0.2551
     16 C          27.1962   73.8331    4.3833 C.ar    1  UNL1        0.3323
     17 N          28.4552   73.7252    4.8474 N.ar    1  UNL1       -0.2743
     18 C          29.2826   72.7824    4.3522 C.ar    1  UNL1        0.2626
     19 C          28.8153   71.9093    3.3407 C.ar    1  UNL1        0.0795
     20 C          27.5470   72.0373    2.8972 C.ar    1  UNL1        0.0869
     21 O          26.4611   74.6877    4.8392 O.2     1  UNL1       -0.2464
     22 O          30.4223   72.6835    4.7717 O.2     1  UNL1       -0.2670
     23 H          28.7685   74.3271    5.5400 H       1  UNL1        0.1734
     24 O          21.8232   71.0729   -2.2188 O.3     1  UNL1       -0.2703
     25 P          20.5276   71.4529   -1.3414 P.3     1  UNL1        0.2208
     26 O          20.5150   70.5708    0.0061 O.3     1  UNL1       -0.4371
     27 O          20.5736   72.8891   -0.9897 O.2     1  UNL1       -0.5170
     28 O          19.1951   71.1509   -2.1935 O.3     1  UNL1       -0.2865
     29 C          18.9639   69.9103   -2.8633 C.3     1  UNL1        0.2611
     30 C          18.5147   70.1817   -4.3011 C.3     1  UNL1        0.1582
     31 C          17.1902   70.9508   -4.2765 C.3     1  UNL1        0.1625
     32 C          16.1567   70.1414   -3.4884 C.3     1  UNL1        0.1686
     33 C          16.6971   69.8716   -2.0815 C.3     1  UNL1        0.1760
     34 O          16.7259   71.1444   -5.6145 O.3     1  UNL1       -0.3801
     35 O          15.9140   68.9004   -4.1535 O.3     1  UNL1       -0.3794
     36 O          17.9446   69.1813   -2.1764 O.3     1  UNL1       -0.3263
     37 H          15.8898   71.6267   -5.6743 H       1  UNL1        0.2105
     38 H          15.2680   68.3344   -3.7080 H       1  UNL1        0.2105
     39 C          19.4468   72.3254   -4.9891 C.2     1  UNL1        0.2231
     40 C          20.4925   73.1473   -5.6960 C.3     1  UNL1        0.0946
     41 N          19.5321   70.9804   -4.9892 N.am    1  UNL1       -0.2994
     42 O          18.5269   72.8740   -4.4191 O.2     1  UNL1       -0.2751
     43 H          20.2668   70.5414   -5.4456 H       1  UNL1        0.1496
     44 C          15.6959   69.0122   -1.3071 C.3     1  UNL1        0.1693
     45 O          14.3674   69.3367   -1.7220 O.3     1  UNL1       -0.3794
     46 H          13.6789   68.8290   -1.2712 H       1  UNL1        0.2105
@<TRIPOS>BOND
     1    29    30    1
     2    30    41    1
     3    30    31    1
     4    31    34    1
     5    31    32    1
     6    32    35    1
     7    32    33    1
     8    33    36    1
     9    33    44    1
    10    39    40    1
    11    39    42    2
    12    39    41   am
    13    41    43    1
    14    29    28    1
    15    34    37    1
    16    35    38    1
    17    29    36    1
    18    44    45    1
    19    45    46    1
    20    15     6    1
    21    15    16   ar
    22    16    21    2
    23    16    17   ar
    24    17    23    1
    25    17    18   ar
    26    18    19   ar
    27    19    20   ar
    28    15    20   ar
    29    18    22    2
    30     6     7    1
    31     6    11    1
    32     7     9    1
    33     7     8    1
    34     8    13    1
    35     9    10    1
    36     9    12    1
    37    10     5    1
    38    10    11    1
    39    12    14    1
    40     5     4    1
    41     4     1    1
    42     1     2    1
    43     1    24    1
    44     1     3    2
    45    24    25    1
    46    28    25    1
    47    25    26    1
    48    25    27    2
@<TRIPOS>MOLECULE
UD2
 46 48 0 0 0
SMALL
GASTEIGER

@<TRIPOS>ATOM
      1 P          20.8669   71.4139   -2.5545 P.3     1  UNL1        0.2189
      2 O          22.0378   70.5901   -3.2906 O.3     1  UNL1       -0.4371
      3 O          21.1025   72.8647   -2.7233 O.2     1  UNL1       -0.5170
      4 O          19.4458   71.0218   -3.2030 O.3     1  UNL1       -0.3112
      5 C          18.1959   71.3805   -2.6109 C.3     1  UNL1        0.1811
      6 C          16.8251   70.4949   -5.8160 C.3     1  UNL1        0.2383
      7 C          17.0411   69.1393   -5.0966 C.3     1  UNL1        0.1895
      8 O          16.0715   68.1780   -5.5178 O.3     1  UNL1       -0.3779
      9 C          16.8303   69.5221   -3.6112 C.3     1  UNL1        0.1713
     10 C          17.0586   71.0454   -3.5789 C.3     1  UNL1        0.1764
     11 O          17.4134   71.4531   -4.9098 O.3     1  UNL1       -0.3308
     12 O          15.4994   69.2065   -3.1987 O.3     1  UNL1       -0.3794
     13 H          16.1655   67.3132   -5.0960 H       1  UNL1        0.2106
     14 H          15.2818   68.2663   -3.2555 H       1  UNL1        0.2105
     15 N          17.5188   70.5107   -7.1058 N.ar    1  UNL1       -0.2551
     16 C          16.8056   70.5334   -8.2459 C.ar    1  UNL1        0.3323
     17 N          17.4168   70.5481   -9.4452 N.ar    1  UNL1       -0.2743
     18 C          18.7632   70.5421   -9.5210 C.ar    1  UNL1        0.2626
     19 C          19.5264   70.5192   -8.3289 C.ar    1  UNL1        0.0795
     20 C          18.8873   70.5091   -7.1402 C.ar    1  UNL1        0.0869
     21 O          15.5909   70.5393   -8.1926 O.2     1  UNL1       -0.2464
     22 O          19.3176   70.5558  -10.6059 O.2     1  UNL1       -0.2670
     23 H          16.8875   70.5632  -10.2574 H       1  UNL1        0.1734
     24 O          20.8589   71.0500   -0.9858 O.3     1  UNL1       -0.2703
     25 P          21.9275   71.2201    0.2067 P.3     1  UNL1        0.2208
     26 O          21.8143   69.9662    1.2109 O.3     1  UNL1       -0.4371
     27 O          23.2933   71.2767   -0.3588 O.2     1  UNL1       -0.5170
     28 O          21.6222   72.5814    1.0107 O.3     1  UNL1       -0.2865
     29 C          20.6744   72.6599    2.0769 C.3     1  UNL1        0.2611
     30 C          19.8904   73.9699    1.9685 C.3     1  UNL1        0.1582
     31 C          20.8579   75.1479    2.1186 C.3     1  UNL1        0.1625
     32 C          21.5955   75.0218    3.4544 C.3     1  UNL1        0.1686
     33 C          22.3141   73.6709    3.5055 C.3     1  UNL1        0.1760
     34 O          20.1242   76.3744    2.0921 O.3     1  UNL1       -0.3801
     35 O          20.6567   75.1049    4.5282 O.3     1  UNL1       -0.3794
     36 O          21.3622   72.6198    3.3289 O.3     1  UNL1       -0.3263
     37 H          20.6754   77.1640    2.1817 H       1  UNL1        0.2105
     38 H          21.0554   75.0316    5.4066 H       1  UNL1        0.2105
     39 C          17.9686   74.4968    0.5660 C.2     1  UNL1        0.2231
     40 C          17.2919   74.5692   -0.7776 C.3     1  UNL1        0.0946
     41 N          19.2328   74.0398    0.6611 N.am    1  UNL1       -0.2994
     42 O          17.3754   74.8499    1.5639 O.2     1  UNL1       -0.2751
     43 H          19.7070   73.7565   -0.1363 H       1  UNL1        0.1496
     44 C          23.0046   73.5117    4.8613 C.3     1  UNL1        0.1693
     45 O          22.1051   72.8958    5.7854 O.3     1  UNL1       -0.3794
     46 H          22.4768   72.7634    6.6682 H       1  UNL1        0.2105
@<TRIPOS>BOND
     1    29    30    1
     2    30    41    1
     3    30    31    1
     4    31    34    1
     5    31    32    1
     6    32    35    1
     7    32    33    1
     8    33    36    1
     9    33    44    1
    10    39    40    1
    11    39    42    2
    12    39    41   am
    13    41    43    1
    14    29    28    1
    15    34    37    1
    16    35    38    1
    17    29    36    1
    18    44    45    1
    19    45    46    1
    20    15     6    1
    21    15    16   ar
    22    16    21    2
    23    16    17   ar
    24    17    23    1
    25    17    18   ar
    26    18    19   ar
    27    19    20   ar
    28    15    20   ar
    29    18    22    2
    30     6     7    1
    31     6    11    1
    32     7     9    1
    33     7     8    1
    34     8    13    1
    35     9    10    1
    36     9    12    1
    37    10     5    1
    38    10    11    1
    39    12    14    1
    40     5     4    1
    41     4     1    1
    42     1     2    1
    43     1    24    1
    44     1     3    2
    45    24    25    1
    46    28    25    1
    47    25    26    1
    48    25    27    2
@<TRIPOS>MOLECULE
UD2
 46 48 0 0 0
SMALL
GASTEIGER

@<TRIPOS>ATOM
      1 P          21.7567   71.1712   -0.0796 P.3     1  UNL1        0.2189
      2 O          23.2668   70.9949   -0.6087 O.3     1  UNL1       -0.4371
      3 O          21.5029   70.2122    1.0180 O.2     1  UNL1       -0.5170
      4 O          21.5500   72.6737    0.4619 O.3     1  UNL1       -0.3112
      5 C          22.6141   73.6237    0.5435 C.3     1  UNL1        0.1811
      6 C          24.3459   74.4704    3.5801 C.3     1  UNL1        0.2383
      7 C          24.3626   75.7759    2.7449 C.3     1  UNL1        0.1895
      8 O          24.3504   76.9249    3.5943 O.3     1  UNL1       -0.3779
      9 C          23.0418   75.6668    1.9443 C.3     1  UNL1        0.1713
     10 C          22.7072   74.1632    1.9729 C.3     1  UNL1        0.1764
     11 O          23.7705   73.5017    2.6767 O.3     1  UNL1       -0.3308
     12 O          22.0091   76.4216    2.5803 O.3     1  UNL1       -0.3794
     13 H          24.3607   77.7663    3.1183 H       1  UNL1        0.2106
     14 H          22.1944   77.3683    2.6429 H       1  UNL1        0.2105
     15 N          25.7068   74.0812    3.9560 N.ar    1  UNL1       -0.2551
     16 C          26.2220   74.5034    5.1244 C.ar    1  UNL1        0.3323
     17 N          27.4700   74.1612    5.4953 N.ar    1  UNL1       -0.2743
     18 C          28.2264   73.3826    4.6952 C.ar    1  UNL1        0.2626
     19 C          27.6964   72.9301    3.4629 C.ar    1  UNL1        0.0795
     20 C          26.4407   73.2851    3.1183 C.ar    1  UNL1        0.0869
     21 O          25.5512   75.2059    5.8559 O.2     1  UNL1       -0.2464
     22 O          29.3559   73.0718    5.0299 O.2     1  UNL1       -0.2670
     23 H          27.8265   74.4753    6.3405 H       1  UNL1        0.1734
     24 O          20.7285   70.8903   -1.2867 O.3     1  UNL1       -0.2703
     25 P          20.7894   71.1095   -2.8808 P.3     1  UNL1        0.2208
     26 O          21.1927   72.6362   -3.1971 O.3     1  UNL1       -0.4371
     27 O          21.8003   70.2015   -3.4657 O.2     1  UNL1       -0.5170
     28 O          19.3469   70.7913   -3.5216 O.3     1  UNL1       -0.2865
     29 C          18.6069   71.7452   -4.2857 C.3     1  UNL1        0.2611
     30 C          17.2214   71.1793   -4.6064 C.3     1  UNL1        0.1582
     31 C          17.3798   69.9194   -5.4631 C.3     1  UNL1        0.1625
     32 C          18.1702   70.2703   -6.7266 C.3     1  UNL1        0.1686
     33 C          19.5195   70.8713   -6.3240 C.3     1  UNL1        0.1760
     34 O          16.0892   69.4257   -5.8288 O.3     1  UNL1       -0.3801
     35 O          17.4358   71.2200   -7.5012 O.3     1  UNL1       -0.3794
     36 O          19.3014   72.0210   -5.5039 O.3     1  UNL1       -0.3263
     37 H          16.1139   68.6266   -6.3729 H       1  UNL1        0.2105
     38 H          17.8787   71.4890   -8.3182 H       1  UNL1        0.2105
     39 C          16.5935   69.5843   -2.8746 C.2     1  UNL1        0.2231
     40 C          15.8840   69.2347   -1.5927 C.3     1  UNL1        0.0946
     41 N          16.5308   70.8401   -3.3596 N.am    1  UNL1       -0.2994
     42 O          17.2219   68.7351   -3.4713 O.2     1  UNL1       -0.2751
     43 H          16.0277   71.5191   -2.8833 H       1  UNL1        0.1496
     44 C          20.2909   71.2797   -7.5805 C.3     1  UNL1        0.1693
     45 O          21.6692   71.4692   -7.2536 O.3     1  UNL1       -0.3794
     46 H          22.2198   71.7301   -8.0045 H       1  UNL1        0.2105
@<TRIPOS>BOND
     1    29    30    1
     2    30    41    1
     3    30    31    1
     4    31    34    1
     5    31    32    1
     6    32    35    1
     7    32    33    1
     8    33    36    1
     9    33    44    1
    10    39    40    1
    11    39    42    2
    12    39    41   am
    13    41    43    1
    14    29    28    1
    15    34    37    1
    16    35    38    1
    17    29    36    1
    18    44    45    1
    19    45    46    1
    20    15     6    1
    21    15    16   ar
    22    16    21    2
    23    16    17   ar
    24    17    23    1
    25    17    18   ar
    26    18    19   ar
    27    19    20   ar
    28    15    20   ar
    29    18    22    2
    30     6     7    1
    31     6    11    1
    32     7     9    1
    33     7     8    1
    34     8    13    1
    35     9    10    1
    36     9    12    1
    37    10     5    1
    38    10    11    1
    39    12    14    1
    40     5     4    1
    41     4     1    1
    42     1     2    1
    43     1    24    1
    44     1     3    2
    45    24    25    1
    46    28    25    1
    47    25    26    1
    48    25    27    2
@<TRIPOS>MOLECULE
UD2
 46 48 0 0 0
SMALL
GASTEIGER

@<TRIPOS>ATOM
      1 P          23.4670   72.0135   -3.3027 P.3     1  UNL1        0.2189
      2 O          24.2822   72.9849   -4.2943 O.3     1  UNL1       -0.4371
      3 O          24.2523   70.7833   -3.0605 O.2     1  UNL1       -0.5170
      4 O          23.2082   72.7692   -1.9043 O.3     1  UNL1       -0.3112
      5 C          22.7538   74.1214   -1.8240 C.3     1  UNL1        0.1811
      6 C          20.9171   74.2631    1.2651 C.3     1  UNL1        0.2383
      7 C          21.0932   75.7454    0.8481 C.3     1  UNL1        0.1895
      8 O          19.9927   76.5368    1.3005 O.3     1  UNL1       -0.3779
      9 C          21.1060   75.6492   -0.6972 C.3     1  UNL1        0.1713
     10 C          21.4782   74.1812   -0.9800 C.3     1  UNL1        0.1764
     11 O          21.7010   73.5444    0.2881 O.3     1  UNL1       -0.3308
     12 O          19.8133   75.9487   -1.2264 O.3     1  UNL1       -0.3794
     13 H          20.0572   77.4720    1.0644 H       1  UNL1        0.2106
     14 H          19.5031   76.8423   -1.0269 H       1  UNL1        0.2105
     15 N          21.4430   74.0408    2.6138 N.ar    1  UNL1       -0.2551
     16 C          21.2535   72.8531    3.2156 C.ar    1  UNL1        0.3323
     17 N          21.7256   72.6210    4.4547 N.ar    1  UNL1       -0.2743
     18 C          22.4021   73.5832    5.1145 C.ar    1  UNL1        0.2626
     19 C          22.6098   74.8379    4.4926 C.ar    1  UNL1        0.0795
     20 C          22.1290   75.0414    3.2480 C.ar    1  UNL1        0.0869
     21 O          20.6455   71.9763    2.6325 O.2     1  UNL1       -0.2464
     22 O          22.8303   73.3743    6.2359 O.2     1  UNL1       -0.2670
     23 H          21.5791   71.7594    4.8745 H       1  UNL1        0.1734
     24 O          22.0545   71.6260   -3.9719 O.3     1  UNL1       -0.2703
     25 P          21.0758   72.3582   -5.0202 P.3     1  UNL1        0.2208
     26 O          21.0954   73.9463   -4.7528 O.3     1  UNL1       -0.4371
     27 O          21.5364   72.0851   -6.3992 O.2     1  UNL1       -0.5170
     28 O          19.5767   71.8007   -4.8343 O.3     1  UNL1       -0.2865
     29 C          19.2182   70.4378   -5.0695 C.3     1  UNL1        0.2611
     30 C          18.1291   70.3736   -6.1429 C.3     1  UNL1        0.1582
     31 C          16.8807   71.1020   -5.6355 C.3     1  UNL1        0.1625
     32 C          16.4333   70.4671   -4.3160 C.3     1  UNL1        0.1686
     33 C          17.5882   70.5278   -3.3127 C.3     1  UNL1        0.1760
     34 O          15.8336   70.9839   -6.6015 O.3     1  UNL1       -0.3801
     35 O          16.0669   69.1047   -4.5414 O.3     1  UNL1       -0.3794
     36 O          18.7270   69.8592   -3.8586 O.3     1  UNL1       -0.3263
     37 H          15.0114   71.4237   -6.3454 H       1  UNL1        0.2105
     38 H          15.7730   68.6390   -3.7460 H       1  UNL1        0.2105
     39 C          18.8175   70.2876   -8.4788 C.2     1  UNL1        0.2231
     40 C          19.3112   70.9513   -9.7375 C.3     1  UNL1        0.0946
     41 N          18.6095   71.0199   -7.3668 N.am    1  UNL1       -0.2994
     42 O          18.6067   69.0928   -8.4654 O.2     1  UNL1       -0.2751
     43 H          18.7789   71.9751   -7.3768 H       1  UNL1        0.1496
     44 C          17.1691   69.8420   -2.0110 C.3     1  UNL1        0.1693
     45 O          17.4971   68.4526   -2.0767 O.3     1  UNL1       -0.3794
     46 H          17.2590   67.9537   -1.2834 H       1  UNL1        0.2105
@<TRIPOS>BOND
     1    29    30    1
     2    30    41    1
     3    30    31    1
     4    31    34    1
     5    31    32    1
     6    32    35    1
     7    32    33    1
     8    33    36    1
     9    33    44    1
    10    39    40    1
    11    39    42    2
    12    39    41   am
    13    41    43    1
    14    29    28    1
    15    34    37    1
    16    35    38    1
    17    29    36    1
    18    44    45    1
    19    45    46    1
    20    15     6    1
    21    15    16   ar
    22    16    21    2
    23    16    17   ar
    24    17    23    1
    25    17    18   ar
    26    18    19   ar
    27    19    20   ar
    28    15    20   ar
    29    18    22    2
    30     6     7    1
    31     6    11    1
    32     7     9    1
    33     7     8    1
    34     8    13    1
    35     9    10    1
    36     9    12    1
    37    10     5    1
    38    10    11    1
    39    12    14    1
    40     5     4    1
    41     4     1    1
    42     1     2    1
    43     1    24    1
    44     1     3    2
    45    24    25    1
    46    28    25    1
    47    25    26    1
    48    25    27    2
@<TRIPOS>MOLECULE
UD2
 46 48 0 0 0
SMALL
GASTEIGER

@<TRIPOS>ATOM
      1 P          21.3318   71.9034   -2.4156 P.3     1  UNL1        0.2189
      2 O          22.5912   72.1197   -3.3946 O.3     1  UNL1       -0.4371
      3 O          20.8097   73.2189   -1.9845 O.2     1  UNL1       -0.5170
      4 O          20.1770   71.0974   -3.1970 O.3     1  UNL1       -0.3112
      5 C          19.0680   70.4892   -2.5325 C.3     1  UNL1        0.1811
      6 C          17.2444   70.5142   -5.6326 C.3     1  UNL1        0.2383
      7 C          17.0877   69.0672   -5.0999 C.3     1  UNL1        0.1895
      8 O          15.8391   68.5055   -5.5089 O.3     1  UNL1       -0.3779
      9 C          17.1221   69.2795   -3.5666 C.3     1  UNL1        0.1713
     10 C          17.8106   70.6465   -3.3911 C.3     1  UNL1        0.1764
     11 O          18.1685   71.1165   -4.7004 O.3     1  UNL1       -0.3308
     12 O          15.7954   69.3156   -3.0381 O.3     1  UNL1       -0.3794
     13 H          15.6947   67.6007   -5.2006 H       1  UNL1        0.2106
     14 H          15.2948   68.4999   -3.1736 H       1  UNL1        0.2105
     15 N          17.8060   70.5079   -6.9852 N.ar    1  UNL1       -0.2551
     16 C          16.9839   70.4452   -8.0478 C.ar    1  UNL1        0.3323
     17 N          17.4725   70.4377   -9.3022 N.ar    1  UNL1       -0.2743
     18 C          18.8032   70.4954   -9.5126 C.ar    1  UNL1        0.2626
     19 C          19.6801   70.5628   -8.4033 C.ar    1  UNL1        0.0795
     20 C          19.1626   70.5730   -7.1569 C.ar    1  UNL1        0.0869
     21 O          15.7818   70.3929   -7.8730 O.2     1  UNL1       -0.2464
     22 O          19.2467   70.4891  -10.6475 O.2     1  UNL1       -0.2670
     23 H          16.8657   70.3909  -10.0570 H       1  UNL1        0.1734
     24 O          21.7942   71.0597   -1.1242 O.3     1  UNL1       -0.2703
     25 P          21.6459   71.2765    0.4645 P.3     1  UNL1        0.2208
     26 O          20.1824   71.8641    0.7911 O.3     1  UNL1       -0.4371
     27 O          21.8230   69.9818    1.1579 O.2     1  UNL1       -0.5170
     28 O          22.7671   72.3151    0.9713 O.3     1  UNL1       -0.2865
     29 C          22.4981   73.6988    1.2038 C.3     1  UNL1        0.2611
     30 C          23.7817   74.5091    1.0077 C.3     1  UNL1        0.1582
     31 C          24.8223   74.0582    2.0374 C.3     1  UNL1        0.1625
     32 C          24.2394   74.2255    3.4433 C.3     1  UNL1        0.1686
     33 C          22.9378   73.4258    3.5456 C.3     1  UNL1        0.1760
     34 O          25.9987   74.8600    1.9096 O.3     1  UNL1       -0.3801
     35 O          23.9720   75.6074    3.6882 O.3     1  UNL1       -0.3794
     36 O          22.0254   73.8736    2.5411 O.3     1  UNL1       -0.3263
     37 H          26.7016   74.6283    2.5321 H       1  UNL1        0.2105
     38 H          23.5993   75.7877    4.5626 H       1  UNL1        0.2105
     39 C          24.0752   75.1934   -1.3125 C.2     1  UNL1        0.2231
     40 C          24.6086   74.9630   -2.7021 C.3     1  UNL1        0.0946
     41 N          24.3007   74.2841   -0.3438 N.am    1  UNL1       -0.2994
     42 O          23.4418   76.1982   -1.0646 O.2     1  UNL1       -0.2751
     43 H          24.8062   73.4802   -0.5418 H       1  UNL1        0.1496
     44 C          22.3179   73.6357    4.9283 C.3     1  UNL1        0.1693
     45 O          22.3888   72.4179    5.6728 O.3     1  UNL1       -0.3794
     46 H          22.0131   72.4773    6.5618 H       1  UNL1        0.2105
@<TRIPOS>BOND
     1    29    30    1
     2    30    41    1
     3    30    31    1
     4    31    34    1
     5    31    32    1
     6    32    35    1
     7    32    33    1
     8    33    36    1
     9    33    44    1
    10    39    40    1
    11    39    42    2
    12    39    41   am
    13    41    43    1
    14    29    28    1
    15    34    37    1
    16    35    38    1
    17    29    36    1
    18    44    45    1
    19    45    46    1
    20    15     6    1
    21    15    16   ar
    22    16    21    2
    23    16    17   ar
    24    17    23    1
    25    17    18   ar
    26    18    19   ar
    27    19    20   ar
    28    15    20   ar
    29    18    22    2
    30     6     7    1
    31     6    11    1
    32     7     9    1
    33     7     8    1
    34     8    13    1
    35     9    10    1
    36     9    12    1
    37    10     5    1
    38    10    11    1
    39    12    14    1
    40     5     4    1
    41     4     1    1
    42     1     2    1
    43     1    24    1
    44     1     3    2
    45    24    25    1
    46    28    25    1
    47    25    26    1
    48    25    27    2
@<TRIPOS>MOLECULE
UD2
 46 48 0 0 0
SMALL
GASTEIGER

@<TRIPOS>ATOM
      1 P          22.5112   71.5355   -2.5986 P.3     1  UNL1        0.2189
      2 O          22.3743   73.1015   -2.9457 O.3     1  UNL1       -0.4371
      3 O          23.7557   71.0040   -3.1967 O.2     1  UNL1       -0.5170
      4 O          22.5587   71.3424   -1.0004 O.3     1  UNL1       -0.3112
      5 C          21.4482   70.8584   -0.2428 C.3     1  UNL1        0.1811
      6 C          23.3327   71.9818    2.6073 C.3     1  UNL1        0.2383
      7 C          22.7343   73.2765    2.0009 C.3     1  UNL1        0.1895
      8 O          22.4898   74.2503    3.0176 O.3     1  UNL1       -0.3779
      9 C          21.4046   72.7667    1.3931 C.3     1  UNL1        0.1713
     10 C          21.6237   71.2508    1.2263 C.3     1  UNL1        0.1764
     11 O          22.9650   70.9629    1.6522 O.3     1  UNL1       -0.3308
     12 O          20.3185   73.0203    2.2857 O.3     1  UNL1       -0.3794
     13 H          22.1158   75.0785    2.6876 H       1  UNL1        0.2106
     14 H          20.1730   73.9574    2.4731 H       1  UNL1        0.2105
     15 N          24.7896   72.0877    2.7141 N.ar    1  UNL1       -0.2551
     16 C          25.5512   70.9916    2.5496 C.ar    1  UNL1        0.3323
     17 N          26.8925   71.0596    2.6425 N.ar    1  UNL1       -0.2743
     18 C          27.4960   72.2373    2.9021 C.ar    1  UNL1        0.2626
     19 C          26.7065   73.3994    3.0765 C.ar    1  UNL1        0.0795
     20 C          25.3643   73.3028    2.9737 C.ar    1  UNL1        0.0869
     21 O          25.0207   69.9230    2.3149 O.2     1  UNL1       -0.2464
     22 O          28.7099   72.3003    2.9860 O.2     1  UNL1       -0.2670
     23 H          27.4267   70.2594    2.5224 H       1  UNL1        0.1734
     24 O          21.2454   70.7401   -3.1972 O.3     1  UNL1       -0.2703
     25 P          19.6532   70.9768   -3.1522 P.3     1  UNL1        0.2208
     26 O          18.9973   70.0028   -2.0501 O.3     1  UNL1       -0.4371
     27 O          19.3735   72.3847   -2.7944 O.2     1  UNL1       -0.5170
     28 O          19.0218   70.6544   -4.5979 O.3     1  UNL1       -0.2865
     29 C          18.3656   71.6395   -5.3980 C.3     1  UNL1        0.2611
     30 C          16.9254   71.1995   -5.6716 C.3     1  UNL1        0.1582
     31 C          16.9429   69.8905   -6.4670 C.3     1  UNL1        0.1625
     32 C          17.7407   70.1001   -7.7569 C.3     1  UNL1        0.1686
     33 C          19.1499   70.5826   -7.4029 C.3     1  UNL1        0.1760
     34 O          15.6033   69.5106   -6.7903 O.3     1  UNL1       -0.3801
     35 O          17.0894   71.0800   -8.5674 O.3     1  UNL1       -0.3794
     36 O          19.0614   71.7862   -6.6377 O.3     1  UNL1       -0.3263
     37 H          15.5391   68.6879   -7.2945 H       1  UNL1        0.2105
     38 H          17.5416   71.2641   -9.4027 H       1  UNL1        0.2105
     39 C          16.1803   69.7607   -3.8515 C.2     1  UNL1        0.2231
     40 C          15.4636   69.5452   -2.5445 C.3     1  UNL1        0.0946
     41 N          16.2278   70.9906   -4.4003 N.am    1  UNL1       -0.2994
     42 O          16.7156   68.8266   -4.4112 O.2     1  UNL1       -0.2751
     43 H          15.7991   71.7375   -3.9536 H       1  UNL1        0.1496
     44 C          19.9346   70.8516   -8.6883 C.3     1  UNL1        0.1693
     45 O          20.7812   71.9877   -8.5016 O.3     1  UNL1       -0.3794
     46 H          21.3097   72.2169   -9.2782 H       1  UNL1        0.2105
@<TRIPOS>BOND
     1    29    30    1
     2    30    41    1
     3    30    31    1
     4    31    34    1
     5    31    32    1
     6    32    35    1
     7    32    33    1
     8    33    36    1
     9    33    44    1
    10    39    40    1
    11    39    42    2
    12    39    41   am
    13    41    43    1
    14    29    28    1
    15    34    37    1
    16    35    38    1
    17    29    36    1
    18    44    45    1
    19    45    46    1
    20    15     6    1
    21    15    16   ar
    22    16    21    2
    23    16    17   ar
    24    17    23    1
    25    17    18   ar
    26    18    19   ar
    27    19    20   ar
    28    15    20   ar
    29    18    22    2
    30     6     7    1
    31     6    11    1
    32     7     9    1
    33     7     8    1
    34     8    13    1
    35     9    10    1
    36     9    12    1
    37    10     5    1
    38    10    11    1
    39    12    14    1
    40     5     4    1
    41     4     1    1
    42     1     2    1
    43     1    24    1
    44     1     3    2
    45    24    25    1
    46    28    25    1
    47    25    26    1
    48    25    27    2
@<TRIPOS>MOLECULE
UD2
 46 48 0 0 0
SMALL
GASTEIGER

@<TRIPOS>ATOM
      1 P          23.1420   72.8731   -3.1731 P.3     1  UNL1        0.2189
      2 O          23.3059   74.4639   -2.9894 O.3     1  UNL1       -0.4371
      3 O          24.1810   72.3733   -4.1003 O.2     1  UNL1       -0.5170
      4 O          23.3044   72.1484   -1.7441 O.3     1  UNL1       -0.3112
      5 C          23.5772   72.8627   -0.5371 C.3     1  UNL1        0.1811
      6 C          22.9654   72.2632    2.9562 C.3     1  UNL1        0.2383
      7 C          21.5840   72.6693    2.3827 C.3     1  UNL1        0.1895
      8 O          20.5263   72.0281    3.0982 O.3     1  UNL1       -0.3779
      9 C          21.6672   72.1414    0.9295 C.3     1  UNL1        0.1713
     10 C          23.1786   72.0031    0.6651 C.3     1  UNL1        0.1764
     11 O          23.8626   72.4617    1.8421 O.3     1  UNL1       -0.3308
     12 O          21.0220   70.8713    0.8224 O.3     1  UNL1       -0.3794
     13 H          19.6421   72.2511    2.7769 H       1  UNL1        0.2106
     14 H          20.0794   70.8889    1.0361 H       1  UNL1        0.2105
     15 N          23.3340   73.1311    4.0769 N.ar    1  UNL1       -0.2551
     16 C          24.5325   73.7414    4.0810 C.ar    1  UNL1        0.3323
     17 N          24.8977   74.5443    5.0979 N.ar    1  UNL1       -0.2743
     18 C          24.0596   74.7510    6.1340 C.ar    1  UNL1        0.2626
     19 C          22.7945   74.1158    6.1422 C.ar    1  UNL1        0.0795
     20 C          22.4529   73.3195    5.1075 C.ar    1  UNL1        0.0869
     21 O          25.2982   73.5642    3.1532 O.2     1  UNL1       -0.2464
     22 O          24.3887   75.4778    7.0549 O.2     1  UNL1       -0.2670
     23 H          25.7660   74.9756    5.0857 H       1  UNL1        0.1734
     24 O          21.6841   72.5495   -3.7755 O.3     1  UNL1       -0.2703
     25 P          20.1804   72.8697   -3.2966 P.3     1  UNL1        0.2208
     26 O          20.0214   72.4903   -1.7395 O.3     1  UNL1       -0.4371
     27 O          19.8988   74.3098   -3.4841 O.2     1  UNL1       -0.5170
     28 O          19.1428   72.0014   -4.1696 O.3     1  UNL1       -0.2865
     29 C          19.5380   71.2220   -5.2999 C.3     1  UNL1        0.2611
     30 C          19.3014   72.0240   -6.5819 C.3     1  UNL1        0.1582
     31 C          17.8046   72.3187   -6.7205 C.3     1  UNL1        0.1625
     32 C          17.0320   70.9968   -6.7119 C.3     1  UNL1        0.1686
     33 C          17.3562   70.2342   -5.4246 C.3     1  UNL1        0.1760
     34 O          17.5652   73.0038   -7.9520 O.3     1  UNL1       -0.3801
     35 O          17.4160   70.2118   -7.8423 O.3     1  UNL1       -0.3794
     36 O          18.7666   70.0197   -5.3422 O.3     1  UNL1       -0.3263
     37 H          16.6360   73.2232   -8.1054 H       1  UNL1        0.2105
     38 H          16.9651   69.3578   -7.9003 H       1  UNL1        0.2105
     39 C          21.2346   73.4000   -7.1361 C.2     1  UNL1        0.2231
     40 C          21.9991   74.6959   -7.0675 C.3     1  UNL1        0.0946
     41 N          20.0445   73.2849   -6.5144 N.am    1  UNL1       -0.2994
     42 O          21.6901   72.4587   -7.7515 O.2     1  UNL1       -0.2751
     43 H          19.6804   74.0369   -6.0215 H       1  UNL1        0.1496
     44 C          16.6346   68.8853   -5.4357 C.3     1  UNL1        0.1693
     45 O          15.5395   68.9376   -6.3524 O.3     1  UNL1       -0.3794
     46 H          15.0354   68.1146   -6.4112 H       1  UNL1        0.2105
@<TRIPOS>BOND
     1    29    30    1
     2    30    41    1
     3    30    31    1
     4    31    34    1
     5    31    32    1
     6    32    35    1
     7    32    33    1
     8    33    36    1
     9    33    44    1
    10    39    40    1
    11    39    42    2
    12    39    41   am
    13    41    43    1
    14    29    28    1
    15    34    37    1
    16    35    38    1
    17    29    36    1
    18    44    45    1
    19    45    46    1
    20    15     6    1
    21    15    16   ar
    22    16    21    2
    23    16    17   ar
    24    17    23    1
    25    17    18   ar
    26    18    19   ar
    27    19    20   ar
    28    15    20   ar
    29    18    22    2
    30     6     7    1
    31     6    11    1
    32     7     9    1
    33     7     8    1
    34     8    13    1
    35     9    10    1
    36     9    12    1
    37    10     5    1
    38    10    11    1
    39    12    14    1
    40     5     4    1
    41     4     1    1
    42     1     2    1
    43     1    24    1
    44     1     3    2
    45    24    25    1
    46    28    25    1
    47    25    26    1
    48    25    27    2
@<TRIPOS>MOLECULE
UD2
 46 48 0 0 0
SMALL
GASTEIGER

@<TRIPOS>ATOM
      1 P          22.2624   73.6872   -1.8618 P.3     1  UNL1        0.2189
      2 O          22.3101   74.8649   -2.9583 O.3     1  UNL1       -0.4371
      3 O          23.4457   72.8139   -2.0231 O.2     1  UNL1       -0.5170
      4 O          22.2663   74.3290   -0.3847 O.3     1  UNL1       -0.3112
      5 C          21.2020   74.1367    0.5489 C.3     1  UNL1        0.1811
      6 C          23.2823   71.9887    2.5477 C.3     1  UNL1        0.2383
      7 C          22.5916   72.9250    3.5715 C.3     1  UNL1        0.1895
      8 O          22.4015   72.2611    4.8225 O.3     1  UNL1       -0.3779
      9 C          21.2331   73.2110    2.8859 C.3     1  UNL1        0.1713
     10 C          21.4880   72.8965    1.3994 C.3     1  UNL1        0.1764
     11 O          22.8695   72.5242    1.2716 O.3     1  UNL1       -0.3308
     12 O          20.2185   72.3540    3.4121 O.3     1  UNL1       -0.3794
     13 H          21.9733   72.8063    5.4963 H       1  UNL1        0.2106
     14 H          20.0581   72.4681    4.3585 H       1  UNL1        0.2105
     15 N          24.7386   72.0549    2.6886 N.ar    1  UNL1       -0.2551
     16 C          25.4818   70.9597    2.4498 C.ar    1  UNL1        0.3323
     17 N          26.8220   70.9918    2.5717 N.ar    1  UNL1       -0.2743
     18 C          27.4433   72.1319    2.9362 C.ar    1  UNL1        0.2626
     19 C          26.6734   73.2926    3.1897 C.ar    1  UNL1        0.0795
     20 C          25.3318   73.2329    3.0556 C.ar    1  UNL1        0.0869
     21 O          24.9351   69.9249    2.1202 O.2     1  UNL1       -0.2464
     22 O          28.6563   72.1624    3.0466 O.2     1  UNL1       -0.2670
     23 H          27.3427   70.1928    2.3969 H       1  UNL1        0.1734
     24 O          20.9219   72.8183   -2.0651 O.3     1  UNL1       -0.2703
     25 P          20.6269   71.2473   -2.2605 P.3     1  UNL1        0.2208
     26 O          21.8544   70.5653   -3.0491 O.3     1  UNL1       -0.4371
     27 O          20.4744   70.6054   -0.9365 O.2     1  UNL1       -0.5170
     28 O          19.2717   71.0573   -3.1089 O.3     1  UNL1       -0.2865
     29 C          18.8740   69.8053   -3.6707 C.3     1  UNL1        0.2611
     30 C          18.1304   70.0484   -4.9863 C.3     1  UNL1        0.1582
     31 C          16.8598   70.8556   -4.7029 C.3     1  UNL1        0.1625
     32 C          16.0038   70.0988   -3.6836 C.3     1  UNL1        0.1686
     33 C          16.8296   69.8537   -2.4179 C.3     1  UNL1        0.1760
     34 O          16.1213   71.0243   -5.9151 O.3     1  UNL1       -0.3801
     35 O          15.5959   68.8468   -4.2382 O.3     1  UNL1       -0.3794
     36 O          18.0118   69.1256   -2.7559 O.3     1  UNL1       -0.3263
     37 H          15.3028   71.5284   -5.8097 H       1  UNL1        0.2105
     38 H          15.0494   68.3125   -3.6450 H       1  UNL1        0.2105
     39 C          18.9487   70.5451   -7.2271 C.2     1  UNL1        0.2231
     40 C          19.8340   71.3153   -8.1714 C.3     1  UNL1        0.0946
     41 N          18.9921   70.7978   -5.9041 N.am    1  UNL1       -0.2994
     42 O          18.1958   69.6965   -7.6573 O.2     1  UNL1       -0.2751
     43 H          19.5946   71.4756   -5.5596 H       1  UNL1        0.1496
     44 C          16.0012   69.0458   -1.4172 C.3     1  UNL1        0.1693
     45 O          14.9247   69.8496   -0.9301 O.3     1  UNL1       -0.3794
     46 H          14.3563   69.4004   -0.2896 H       1  UNL1        0.2105
@<TRIPOS>BOND
     1    29    30    1
     2    30    41    1
     3    30    31    1
     4    31    34    1
     5    31    32    1
     6    32    35    1
     7    32    33    1
     8    33    36    1
     9    33    44    1
    10    39    40    1
    11    39    42    2
    12    39    41   am
    13    41    43    1
    14    29    28    1
    15    34    37    1
    16    35    38    1
    17    29    36    1
    18    44    45    1
    19    45    46    1
    20    15     6    1
    21    15    16   ar
    22    16    21    2
    23    16    17   ar
    24    17    23    1
    25    17    18   ar
    26    18    19   ar
    27    19    20   ar
    28    15    20   ar
    29    18    22    2
    30     6     7    1
    31     6    11    1
    32     7     9    1
    33     7     8    1
    34     8    13    1
    35     9    10    1
    36     9    12    1
    37    10     5    1
    38    10    11    1
    39    12    14    1
    40     5     4    1
    41     4     1    1
    42     1     2    1
    43     1    24    1
    44     1     3    2
    45    24    25    1
    46    28    25    1
    47    25    26    1
    48    25    27    2
@<TRIPOS>MOLECULE
UD2
 46 48 0 0 0
SMALL
GASTEIGER

@<TRIPOS>ATOM
      1 P          23.1449   71.6193   -2.6113 P.3     1  UNL1        0.2189
      2 O          23.0870   72.8710   -3.6218 O.3     1  UNL1       -0.4371
      3 O          24.2113   70.6875   -3.0398 O.2     1  UNL1       -0.5170
      4 O          23.4589   72.1461   -1.1221 O.3     1  UNL1       -0.3112
      5 C          23.3481   71.3158    0.0354 C.3     1  UNL1        0.1811
      6 C          25.0833   72.9597    2.7231 C.3     1  UNL1        0.2383
      7 C          24.9931   74.0296    1.6054 C.3     1  UNL1        0.1895
      8 O          24.9211   75.3437    2.1618 O.3     1  UNL1       -0.3779
      9 C          23.6658   73.6541    0.9020 C.3     1  UNL1        0.1713
     10 C          23.4351   72.1823    1.2943 C.3     1  UNL1        0.1764
     11 O          24.5558   71.7718    2.0936 O.3     1  UNL1       -0.3308
     12 O          22.5981   74.4733    1.3812 O.3     1  UNL1       -0.3794
     13 H          24.8639   76.0480    1.5020 H       1  UNL1        0.2106
     14 H          22.7199   75.4175    1.2135 H       1  UNL1        0.2105
     15 N          26.4753   72.7541    3.1292 N.ar    1  UNL1       -0.2551
     16 C          27.0343   73.5778    4.0335 C.ar    1  UNL1        0.3323
     17 N          28.3117   73.4124    4.4250 N.ar    1  UNL1       -0.2743
     18 C          29.0539   72.4095    3.9132 C.ar    1  UNL1        0.2626
     19 C          28.4779   71.5343    2.9611 C.ar    1  UNL1        0.0795
     20 C          27.1938   71.7210    2.5901 C.ar    1  UNL1        0.0869
     21 O          26.3768   74.4862    4.5035 O.2     1  UNL1       -0.2464
     22 O          30.2100   72.2585    4.2669 O.2     1  UNL1       -0.2670
     23 H          28.6996   74.0161    5.0771 H       1  UNL1        0.1734
     24 O          21.7277   70.8548   -2.6216 O.3     1  UNL1       -0.2703
     25 P          20.2007   71.3283   -2.4289 P.3     1  UNL1        0.2208
     26 O          19.2777   70.0467   -2.1136 O.3     1  UNL1       -0.4371
     27 O          20.1186   72.2837   -1.3025 O.2     1  UNL1       -0.5170
     28 O          19.6861   72.0421   -3.7773 O.3     1  UNL1       -0.2865
     29 C          20.1359   71.6630   -5.0793 C.3     1  UNL1        0.2611
     30 C          20.1092   72.8820   -6.0045 C.3     1  UNL1        0.1582
     31 C          18.6667   73.3798   -6.1375 C.3     1  UNL1        0.1625
     32 C          17.7896   72.2374   -6.6572 C.3     1  UNL1        0.1686
     33 C          17.9057   71.0429   -5.7065 C.3     1  UNL1        0.1760
     34 O          18.6220   74.4728   -7.0576 O.3     1  UNL1       -0.3801
     35 O          18.2278   71.8543   -7.9620 O.3     1  UNL1       -0.3794
     36 O          19.2756   70.6494   -5.6036 O.3     1  UNL1       -0.3263
     37 H          17.7368   74.8391   -7.1898 H       1  UNL1        0.2105
     38 H          17.7160   71.1327   -8.3534 H       1  UNL1        0.2105
     39 C          21.7192   74.6952   -6.2449 C.2     1  UNL1        0.2231
     40 C          22.5771   75.7880   -5.6632 C.3     1  UNL1        0.0946
     41 N          20.9437   73.9446   -5.4379 N.am    1  UNL1       -0.2994
     42 O          21.7260   74.4902   -7.4408 O.2     1  UNL1       -0.2751
     43 H          20.9387   74.1076   -4.4817 H       1  UNL1        0.1496
     44 C          17.0790   69.8763   -6.2505 C.3     1  UNL1        0.1693
     45 O          15.9032   70.3807   -6.8872 O.3     1  UNL1       -0.3794
     46 H          15.3302   69.6949   -7.2564 H       1  UNL1        0.2105
@<TRIPOS>BOND
     1    29    30    1
     2    30    41    1
     3    30    31    1
     4    31    34    1
     5    31    32    1
     6    32    35    1
     7    32    33    1
     8    33    36    1
     9    33    44    1
    10    39    40    1
    11    39    42    2
    12    39    41   am
    13    41    43    1
    14    29    28    1
    15    34    37    1
    16    35    38    1
    17    29    36    1
    18    44    45    1
    19    45    46    1
    20    15     6    1
    21    15    16   ar
    22    16    21    2
    23    16    17   ar
    24    17    23    1
    25    17    18   ar
    26    18    19   ar
    27    19    20   ar
    28    15    20   ar
    29    18    22    2
    30     6     7    1
    31     6    11    1
    32     7     9    1
    33     7     8    1
    34     8    13    1
    35     9    10    1
    36     9    12    1
    37    10     5    1
    38    10    11    1
    39    12    14    1
    40     5     4    1
    41     4     1    1
    42     1     2    1
    43     1    24    1
    44     1     3    2
    45    24    25    1
    46    28    25    1
    47    25    26    1
    48    25    27    2
@<TRIPOS>MOLECULE
UD2
 46 48 0 0 0
SMALL
GASTEIGER

@<TRIPOS>ATOM
      1 P          21.9558   72.3421   -6.1964 P.3     1  UNL1        0.2189
      2 O          23.0592   73.2404   -6.9493 O.3     1  UNL1       -0.4371
      3 O          20.8298   73.2003   -5.7667 O.2     1  UNL1       -0.5170
      4 O          21.4123   71.2065   -7.2007 O.3     1  UNL1       -0.3112
      5 C          20.5098   71.4846   -8.2730 C.3     1  UNL1        0.1811
      6 C          17.4394   70.1574   -6.9509 C.3     1  UNL1        0.2383
      7 C          16.9931   71.1240   -8.0772 C.3     1  UNL1        0.1895
      8 O          15.7765   70.6783   -8.6796 O.3     1  UNL1       -0.3779
      9 C          18.1722   71.0262   -9.0760 C.3     1  UNL1        0.1713
     10 C          19.3425   70.4955   -8.2261 C.3     1  UNL1        0.1764
     11 O          18.8667   70.3645   -6.8771 O.3     1  UNL1       -0.3308
     12 O          17.8610   70.1101  -10.1270 O.3     1  UNL1       -0.3794
     13 H          15.4562   71.2507   -9.3898 H       1  UNL1        0.2106
     14 H          17.0946   70.3652  -10.6580 H       1  UNL1        0.2105
     15 N          16.7998   70.5131   -5.6823 N.ar    1  UNL1       -0.2551
     16 C          16.4506   69.5442   -4.8174 C.ar    1  UNL1        0.3323
     17 N          15.8612   69.8422   -3.6443 N.ar    1  UNL1       -0.2743
     18 C          15.6122   71.1264   -3.3167 C.ar    1  UNL1        0.2626
     19 C          15.9754   72.1565   -4.2174 C.ar    1  UNL1        0.0795
     20 C          16.5689   71.8292   -5.3845 C.ar    1  UNL1        0.0869
     21 O          16.6692   68.3819   -5.0995 O.2     1  UNL1       -0.2464
     22 O          15.0792   71.3975   -2.2552 O.2     1  UNL1       -0.2670
     23 H          15.6148   69.1313   -3.0327 H       1  UNL1        0.1734
     24 O          22.6211   71.6434   -4.9070 O.3     1  UNL1       -0.2703
     25 P          23.5012   72.1844   -3.6718 P.3     1  UNL1        0.2208
     26 O          24.2365   70.9445   -2.9538 O.3     1  UNL1       -0.4371
     27 O          24.5166   73.1382   -4.1696 O.2     1  UNL1       -0.5170
     28 O          22.5412   72.9259   -2.6130 O.3     1  UNL1       -0.2865
     29 C          21.3324   72.3461   -2.1191 C.3     1  UNL1        0.2611
     30 C          20.3528   73.4571   -1.7334 C.3     1  UNL1        0.1582
     31 C          20.9623   74.2940   -0.6044 C.3     1  UNL1        0.1625
     32 C          21.2930   73.3762    0.5756 C.3     1  UNL1        0.1686
     33 C          22.2366   72.2680    0.1007 C.3     1  UNL1        0.1760
     34 O          20.0240   75.2886   -0.1876 O.3     1  UNL1       -0.3801
     35 O          20.0894   72.7953    1.0809 O.3     1  UNL1       -0.3794
     36 O          21.6223   71.5478   -0.9698 O.3     1  UNL1       -0.3263
     37 H          20.3448   75.8569    0.5260 H       1  UNL1        0.2105
     38 H          20.2241   72.2000    1.8315 H       1  UNL1        0.2105
     39 C          18.8501   74.7395   -3.1599 C.2     1  UNL1        0.2231
     40 C          18.5901   75.6191   -4.3546 C.3     1  UNL1        0.0946
     41 N          20.1007   74.3125   -2.8958 N.am    1  UNL1       -0.2994
     42 O          17.9333   74.4147   -2.4345 O.2     1  UNL1       -0.2751
     43 H          20.8338   74.5711   -3.4760 H       1  UNL1        0.1496
     44 C          22.5245   71.3121    1.2599 C.3     1  UNL1        0.1693
     45 O          21.6385   70.1931    1.1868 O.3     1  UNL1       -0.3794
     46 H          21.7644   69.5443    1.8926 H       1  UNL1        0.2105
@<TRIPOS>BOND
     1    29    30    1
     2    30    41    1
     3    30    31    1
     4    31    34    1
     5    31    32    1
     6    32    35    1
     7    32    33    1
     8    33    36    1
     9    33    44    1
    10    39    40    1
    11    39    42    2
    12    39    41   am
    13    41    43    1
    14    29    28    1
    15    34    37    1
    16    35    38    1
    17    29    36    1
    18    44    45    1
    19    45    46    1
    20    15     6    1
    21    15    16   ar
    22    16    21    2
    23    16    17   ar
    24    17    23    1
    25    17    18   ar
    26    18    19   ar
    27    19    20   ar
    28    15    20   ar
    29    18    22    2
    30     6     7    1
    31     6    11    1
    32     7     9    1
    33     7     8    1
    34     8    13    1
    35     9    10    1
    36     9    12    1
    37    10     5    1
    38    10    11    1
    39    12    14    1
    40     5     4    1
    41     4     1    1
    42     1     2    1
    43     1    24    1
    44     1     3    2
    45    24    25    1
    46    28    25    1
    47    25    26    1
    48    25    27    2
@<TRIPOS>MOLECULE
UD2
 46 48 0 0 0
SMALL
GASTEIGER

@<TRIPOS>ATOM
      1 P          20.3021   74.6785   -1.6722 P.3     1  UNL1        0.2189
      2 O          20.7480   76.1449   -2.1644 O.3     1  UNL1       -0.4371
      3 O          21.2937   73.6808   -2.1308 O.2     1  UNL1       -0.5170
      4 O          20.2204   74.6541   -0.0640 O.3     1  UNL1       -0.3112
      5 C          21.3774   74.6903    0.7735 C.3     1  UNL1        0.1811
      6 C          23.3125   72.1465    2.4231 C.3     1  UNL1        0.2383
      7 C          22.6393   72.9332    3.5763 C.3     1  UNL1        0.1895
      8 O          22.3901   72.0823    4.6969 O.3     1  UNL1       -0.3779
      9 C          21.3116   73.3923    2.9253 C.3     1  UNL1        0.1713
     10 C          21.5880   73.3150    1.4116 C.3     1  UNL1        0.1764
     11 O          22.9544   72.9037    1.2467 O.3     1  UNL1       -0.3308
     12 O          20.2479   72.5094    3.2856 O.3     1  UNL1       -0.3794
     13 H          21.9703   72.5289    5.4445 H       1  UNL1        0.2106
     14 H          20.0699   72.4737    4.2351 H       1  UNL1        0.2105
     15 N          24.7664   72.1195    2.5970 N.ar    1  UNL1       -0.2551
     16 C          25.4461   70.9853    2.3512 C.ar    1  UNL1        0.3323
     17 N          26.7826   70.9317    2.5029 N.ar    1  UNL1       -0.2743
     18 C          27.4643   72.0237    2.9048 C.ar    1  UNL1        0.2626
     19 C          26.7618   73.2246    3.1660 C.ar    1  UNL1        0.0795
     20 C          25.4224   73.2509    3.0016 C.ar    1  UNL1        0.0869
     21 O          24.8444   69.9930    1.9881 O.2     1  UNL1       -0.2464
     22 O          28.6741   71.9767    3.0421 O.2     1  UNL1       -0.2670
     23 H          27.2570   70.1055    2.3226 H       1  UNL1        0.1734
     24 O          18.8573   74.3218   -2.2877 O.3     1  UNL1       -0.2703
     25 P          18.1450   72.9527   -2.7470 P.3     1  UNL1        0.2208
     26 O          18.6109   71.7543   -1.7771 O.3     1  UNL1       -0.4371
     27 O          16.6762   73.1092   -2.6660 O.2     1  UNL1       -0.5170
     28 O          18.5660   72.6111   -4.2631 O.3     1  UNL1       -0.2865
     29 C          19.4118   71.5123   -4.6075 C.3     1  UNL1        0.2611
     30 C          20.4608   71.9731   -5.6223 C.3     1  UNL1        0.1582
     31 C          19.7540   72.4344   -6.9006 C.3     1  UNL1        0.1625
     32 C          18.8921   71.2880   -7.4366 C.3     1  UNL1        0.1686
     33 C          17.9032   70.8536   -6.3516 C.3     1  UNL1        0.1760
     34 O          20.7292   72.7974   -7.8806 O.3     1  UNL1       -0.3801
     35 O          19.7295   70.1855   -7.7895 O.3     1  UNL1       -0.3794
     36 O          18.6239   70.4665   -5.1799 O.3     1  UNL1       -0.3263
     37 H          20.3512   73.1007   -8.7174 H       1  UNL1        0.2105
     38 H          19.2489   69.4211   -8.1370 H       1  UNL1        0.2105
     39 C          22.5448   73.2025   -5.3334 C.2     1  UNL1        0.2231
     40 C          23.3366   74.3461   -4.7555 C.3     1  UNL1        0.0946
     41 N          21.2304   73.0856   -5.0596 N.am    1  UNL1       -0.2994
     42 O          23.0901   72.3858   -6.0459 O.2     1  UNL1       -0.2751
     43 H          20.7942   73.7378   -4.4892 H       1  UNL1        0.1496
     44 C          17.0786   69.6689   -6.8582 C.3     1  UNL1        0.1693
     45 O          16.0797   69.3350   -5.8923 O.3     1  UNL1       -0.3794
     46 H          15.5180   68.5905   -6.1477 H       1  UNL1        0.2105
@<TRIPOS>BOND
     1    29    30    1
     2    30    41    1
     3    30    31    1
     4    31    34    1
     5    31    32    1
     6    32    35    1
     7    32    33    1
     8    33    36    1
     9    33    44    1
    10    39    40    1
    11    39    42    2
    12    39    41   am
    13    41    43    1
    14    29    28    1
    15    34    37    1
    16    35    38    1
    17    29    36    1
    18    44    45    1
    19    45    46    1
    20    15     6    1
    21    15    16   ar
    22    16    21    2
    23    16    17   ar
    24    17    23    1
    25    17    18   ar
    26    18    19   ar
    27    19    20   ar
    28    15    20   ar
    29    18    22    2
    30     6     7    1
    31     6    11    1
    32     7     9    1
    33     7     8    1
    34     8    13    1
    35     9    10    1
    36     9    12    1
    37    10     5    1
    38    10    11    1
    39    12    14    1
    40     5     4    1
    41     4     1    1
    42     1     2    1
    43     1    24    1
    44     1     3    2
    45    24    25    1
    46    28    25    1
    47    25    26    1
    48    25    27    2
@<TRIPOS>MOLECULE
UD2
 46 48 0 0 0
SMALL
GASTEIGER

@<TRIPOS>ATOM
      1 P          21.8731   72.3406   -5.8849 P.3     1  UNL1        0.2189
      2 O          23.2344   72.8326   -6.5894 O.3     1  UNL1       -0.4371
      3 O          20.9079   73.4610   -5.8389 O.2     1  UNL1       -0.5170
      4 O          21.2421   71.1228   -6.7289 O.3     1  UNL1       -0.3112
      5 C          20.5514   71.3100   -7.9656 C.3     1  UNL1        0.1811
      6 C          17.3146   70.2149   -6.8429 C.3     1  UNL1        0.2383
      7 C          17.0122   71.2178   -7.9852 C.3     1  UNL1        0.1895
      8 O          15.8041   70.8687   -8.6637 O.3     1  UNL1       -0.3779
      9 C          18.2389   71.0347   -8.9120 C.3     1  UNL1        0.1713
     10 C          19.3118   70.4126   -7.9981 C.3     1  UNL1        0.1764
     11 O          18.7464   70.3124   -6.6814 O.3     1  UNL1       -0.3308
     12 O          17.9235   70.1496   -9.9881 O.3     1  UNL1       -0.3794
     13 H          15.5718   71.4670   -9.3868 H       1  UNL1        0.2106
     14 H          17.2123   70.4647  -10.5620 H       1  UNL1        0.2105
     15 N          16.6280   70.6128   -5.6119 N.ar    1  UNL1       -0.2551
     16 C          16.3941   69.6983   -4.6539 C.ar    1  UNL1        0.3323
     17 N          15.7649   70.0359   -3.5127 N.ar    1  UNL1       -0.2743
     18 C          15.3588   71.3060   -3.3117 C.ar    1  UNL1        0.2626
     19 C          15.5994   72.2792   -4.3113 C.ar    1  UNL1        0.0795
     20 C          16.2361   71.9137   -5.4438 C.ar    1  UNL1        0.0869
     21 O          16.7549   68.5494   -4.8215 O.2     1  UNL1       -0.2464
     22 O          14.7896   71.6129   -2.2790 O.2     1  UNL1       -0.2670
     23 H          15.6032   69.3638   -2.8327 H       1  UNL1        0.1734
     24 O          22.1927   71.8452   -4.3863 O.3     1  UNL1       -0.2703
     25 P          23.4415   72.0369   -3.3880 P.3     1  UNL1        0.2208
     26 O          24.2060   70.6307   -3.2094 O.3     1  UNL1       -0.4371
     27 O          24.3747   73.0370   -3.9513 O.2     1  UNL1       -0.5170
     28 O          22.9102   72.5451   -1.9555 O.3     1  UNL1       -0.2865
     29 C          22.2404   71.6913   -1.0261 C.3     1  UNL1        0.2611
     30 C          21.3153   72.5276   -0.1386 C.3     1  UNL1        0.1582
     31 C          22.1567   73.5225    0.6667 C.3     1  UNL1        0.1625
     32 C          23.2001   72.7514    1.4799 C.3     1  UNL1        0.1686
     33 C          24.0528   71.9063    0.5297 C.3     1  UNL1        0.1760
     34 O          21.3089   74.2574    1.5523 O.3     1  UNL1       -0.3801
     35 O          22.5403   71.8983    2.4169 O.3     1  UNL1       -0.3794
     36 O          23.2064   71.0247   -0.2107 O.3     1  UNL1       -0.3263
     37 H          21.7762   74.9080    2.0941 H       1  UNL1        0.2105
     38 H          23.1419   71.3775    2.9672 H       1  UNL1        0.2105
     39 C          19.3584   72.5994   -1.5889 C.2     1  UNL1        0.2231
     40 C          18.3779   73.3503   -2.4510 C.3     1  UNL1        0.0946
     41 N          20.3621   73.2587   -0.9773 N.am    1  UNL1       -0.2994
     42 O          19.2450   71.4000   -1.4445 O.2     1  UNL1       -0.2751
     43 H          20.4537   74.2174   -1.0932 H       1  UNL1        0.1496
     44 C          25.0590   71.0870    1.3401 C.3     1  UNL1        0.1693
     45 O          24.4445   69.8724    1.7756 O.3     1  UNL1       -0.3794
     46 H          25.0258   69.3017    2.2967 H       1  UNL1        0.2105
@<TRIPOS>BOND
     1    29    30    1
     2    30    41    1
     3    30    31    1
     4    31    34    1
     5    31    32    1
     6    32    35    1
     7    32    33    1
     8    33    36    1
     9    33    44    1
    10    39    40    1
    11    39    42    2
    12    39    41   am
    13    41    43    1
    14    29    28    1
    15    34    37    1
    16    35    38    1
    17    29    36    1
    18    44    45    1
    19    45    46    1
    20    15     6    1
    21    15    16   ar
    22    16    21    2
    23    16    17   ar
    24    17    23    1
    25    17    18   ar
    26    18    19   ar
    27    19    20   ar
    28    15    20   ar
    29    18    22    2
    30     6     7    1
    31     6    11    1
    32     7     9    1
    33     7     8    1
    34     8    13    1
    35     9    10    1
    36     9    12    1
    37    10     5    1
    38    10    11    1
    39    12    14    1
    40     5     4    1
    41     4     1    1
    42     1     2    1
    43     1    24    1
    44     1     3    2
    45    24    25    1
    46    28    25    1
    47    25    26    1
    48    25    27    2
@<TRIPOS>MOLECULE
UD2
 46 48 0 0 0
SMALL
GASTEIGER

@<TRIPOS>ATOM
      1 P          22.1422   72.7483   -4.1559 P.3     1  UNL1        0.2189
      2 O          21.7104   73.3900   -5.5677 O.3     1  UNL1       -0.4371
      3 O          23.4940   72.1587   -4.2742 O.2     1  UNL1       -0.5170
      4 O          22.1542   73.8960   -3.0262 O.3     1  UNL1       -0.3112
      5 C          21.8015   73.6490   -1.6638 C.3     1  UNL1        0.1811
      6 C          23.6129   72.6762    1.2874 C.3     1  UNL1        0.2383
      7 C          22.9779   71.3610    0.7686 C.3     1  UNL1        0.1895
      8 O          23.7989   70.2366    1.0905 O.3     1  UNL1       -0.3779
      9 C          22.9417   71.5986   -0.7610 C.3     1  UNL1        0.1713
     10 C          23.0262   73.1300   -0.9063 C.3     1  UNL1        0.1764
     11 O          23.0528   73.6847    0.4185 O.3     1  UNL1       -0.3308
     12 O          24.0618   70.9734   -1.3897 O.3     1  UNL1       -0.3794
     13 H          23.4436   69.3902    0.7872 H       1  UNL1        0.2106
     14 H          24.0908   70.0136   -1.2791 H       1  UNL1        0.2105
     15 N          23.2271   72.9215    2.6788 N.ar    1  UNL1       -0.2551
     16 C          22.0495   72.4592    3.1352 C.ar    1  UNL1        0.3323
     17 N          21.6693   72.6700    4.4092 N.ar    1  UNL1       -0.2743
     18 C          22.4709   73.3515    5.2528 C.ar    1  UNL1        0.2626
     19 C          23.7137   73.8429    4.7860 C.ar    1  UNL1        0.0795
     20 C          24.0714   73.6132    3.5051 C.ar    1  UNL1        0.0869
     21 O          21.3167   71.8429    2.3858 O.2     1  UNL1       -0.2464
     22 O          22.1281   73.5426    6.4063 O.2     1  UNL1       -0.2670
     23 H          20.8164   72.3308    4.7217 H       1  UNL1        0.1734
     24 O          21.0901   71.6010   -3.7434 O.3     1  UNL1       -0.2703
     25 P          19.4902   71.5632   -3.5652 P.3     1  UNL1        0.2208
     26 O          19.1109   70.6026   -2.3294 O.3     1  UNL1       -0.4371
     27 O          18.9908   72.9298   -3.2983 O.2     1  UNL1       -0.5170
     28 O          18.8135   70.9977   -4.9124 O.3     1  UNL1       -0.2865
     29 C          17.9518   71.7820   -5.7392 C.3     1  UNL1        0.2611
     30 C          16.5875   71.0972   -5.8504 C.3     1  UNL1        0.1582
     31 C          16.7640   69.7331   -6.5246 C.3     1  UNL1        0.1625
     32 C          17.4262   69.9327   -7.8906 C.3     1  UNL1        0.1686
     33 C          18.7586   70.6625   -7.7007 C.3     1  UNL1        0.1760
     34 O          15.4854   69.1181   -6.6989 O.3     1  UNL1       -0.3801
     35 O          16.5695   70.7115   -8.7276 O.3     1  UNL1       -0.3794
     36 O          18.5274   71.9089   -7.0411 O.3     1  UNL1       -0.3263
     37 H          15.5220   68.2485   -7.1205 H       1  UNL1        0.2105
     38 H          16.9270   70.8783   -9.6109 H       1  UNL1        0.2105
     39 C          16.2067   69.7487   -3.8568 C.2     1  UNL1        0.2231
     40 C          15.6263   69.5578   -2.4801 C.3     1  UNL1        0.0946
     41 N          16.0224   70.9122   -4.5114 N.am    1  UNL1       -0.2994
     42 O          16.8407   68.8547   -4.3774 O.2     1  UNL1       -0.2751
     43 H          15.5147   71.6269   -4.0960 H       1  UNL1        0.1496
     44 C          19.3986   70.9188   -9.0664 C.3     1  UNL1        0.1693
     45 O          18.4733   70.5733  -10.0993 O.3     1  UNL1       -0.3794
     46 H          18.8127   70.7105  -10.9942 H       1  UNL1        0.2105
@<TRIPOS>BOND
     1    29    30    1
     2    30    41    1
     3    30    31    1
     4    31    34    1
     5    31    32    1
     6    32    35    1
     7    32    33    1
     8    33    36    1
     9    33    44    1
    10    39    40    1
    11    39    42    2
    12    39    41   am
    13    41    43    1
    14    29    28    1
    15    34    37    1
    16    35    38    1
    17    29    36    1
    18    44    45    1
    19    45    46    1
    20    15     6    1
    21    15    16   ar
    22    16    21    2
    23    16    17   ar
    24    17    23    1
    25    17    18   ar
    26    18    19   ar
    27    19    20   ar
    28    15    20   ar
    29    18    22    2
    30     6     7    1
    31     6    11    1
    32     7     9    1
    33     7     8    1
    34     8    13    1
    35     9    10    1
    36     9    12    1
    37    10     5    1
    38    10    11    1
    39    12    14    1
    40     5     4    1
    41     4     1    1
    42     1     2    1
    43     1    24    1
    44     1     3    2
    45    24    25    1
    46    28    25    1
    47    25    26    1
    48    25    27    2
@<TRIPOS>MOLECULE
UD2
 46 48 0 0 0
SMALL
GASTEIGER

@<TRIPOS>ATOM
      1 P          22.9138   72.8892   -3.9619 P.3     1  UNL1        0.2189
      2 O          24.1962   71.9563   -3.6857 O.3     1  UNL1       -0.4371
      3 O          23.0695   73.5693   -5.2665 O.2     1  UNL1       -0.5170
      4 O          21.5844   71.9805   -3.9855 O.3     1  UNL1       -0.3112
      5 C          20.5980   72.0193   -2.9526 C.3     1  UNL1        0.1811
      6 C          18.2513   71.4043   -5.6080 C.3     1  UNL1        0.2383
      7 C          18.2556   70.0939   -4.7805 C.3     1  UNL1        0.1895
      8 O          16.9798   69.4526   -4.8342 O.3     1  UNL1       -0.3779
      9 C          18.5536   70.6121   -3.3522 C.3     1  UNL1        0.1713
     10 C          19.2020   71.9911   -3.5796 C.3     1  UNL1        0.1764
     11 O          19.2996   72.1891   -4.9990 O.3     1  UNL1       -0.3308
     12 O          17.3422   70.7453   -2.6069 O.3     1  UNL1       -0.3794
     13 H          16.9325   68.6278   -4.3320 H       1  UNL1        0.2106
     14 H          16.8616   69.9156   -2.4844 H       1  UNL1        0.2105
     15 N          18.5623   71.1286   -7.0124 N.ar    1  UNL1       -0.2551
     16 C          19.6180   71.7279   -7.5913 C.ar    1  UNL1        0.3323
     17 N          19.9271   71.4931   -8.8803 N.ar    1  UNL1       -0.2743
     18 C          19.1778   70.6457   -9.6145 C.ar    1  UNL1        0.2626
     19 C          18.0642   70.0071   -9.0176 C.ar    1  UNL1        0.0795
     20 C          17.7800   70.2578   -7.7222 C.ar    1  UNL1        0.0869
     21 O          20.3026   72.4942   -6.9413 O.2     1  UNL1       -0.2464
     22 O          19.4566   70.4321  -10.7811 O.2     1  UNL1       -0.2670
     23 H          20.6910   71.9346   -9.2825 H       1  UNL1        0.1734
     24 O          22.7894   73.9906   -2.7936 O.3     1  UNL1       -0.2703
     25 P          23.8571   74.7735   -1.8771 P.3     1  UNL1        0.2208
     26 O          25.2334   74.9552   -2.6936 O.3     1  UNL1       -0.4371
     27 O          23.3181   76.1034   -1.5179 O.2     1  UNL1       -0.5170
     28 O          24.1360   73.9269   -0.5361 O.3     1  UNL1       -0.2865
     29 C          23.3242   72.8240   -0.1289 C.3     1  UNL1        0.2611
     30 C          22.2196   73.3204    0.8072 C.3     1  UNL1        0.1582
     31 C          22.8583   73.9173    2.0651 C.3     1  UNL1        0.1625
     32 C          23.7463   72.8589    2.7251 C.3     1  UNL1        0.1686
     33 C          24.7923   72.3802    1.7148 C.3     1  UNL1        0.1760
     34 O          21.8329   74.3167    2.9774 O.3     1  UNL1       -0.3801
     35 O          22.9428   71.7533    3.1415 O.3     1  UNL1       -0.3794
     36 O          24.1328   71.8654    0.5564 O.3     1  UNL1       -0.3263
     37 H          22.1664   74.7050    3.7978 H       1  UNL1        0.2105
     38 H          23.4413   71.0426    3.5684 H       1  UNL1        0.2105
     39 C          20.1117   74.1473   -0.0931 C.2     1  UNL1        0.2231
     40 C          19.2953   75.2022   -0.7925 C.3     1  UNL1        0.0946
     41 N          21.4262   74.3470    0.1267 N.am    1  UNL1       -0.2994
     42 O          19.5861   73.1167    0.2727 O.2     1  UNL1       -0.2751
     43 H          21.8471   75.1703   -0.1665 H       1  UNL1        0.1496
     44 C          25.6459   71.2795    2.3475 C.3     1  UNL1        0.1693
     45 O          24.9391   70.0385    2.2957 O.3     1  UNL1       -0.3794
     46 H          25.4216   69.2940    2.6803 H       1  UNL1        0.2105
@<TRIPOS>BOND
     1    29    30    1
     2    30    41    1
     3    30    31    1
     4    31    34    1
     5    31    32    1
     6    32    35    1
     7    32    33    1
     8    33    36    1
     9    33    44    1
    10    39    40    1
    11    39    42    2
    12    39    41   am
    13    41    43    1
    14    29    28    1
    15    34    37    1
    16    35    38    1
    17    29    36    1
    18    44    45    1
    19    45    46    1
    20    15     6    1
    21    15    16   ar
    22    16    21    2
    23    16    17   ar
    24    17    23    1
    25    17    18   ar
    26    18    19   ar
    27    19    20   ar
    28    15    20   ar
    29    18    22    2
    30     6     7    1
    31     6    11    1
    32     7     9    1
    33     7     8    1
    34     8    13    1
    35     9    10    1
    36     9    12    1
    37    10     5    1
    38    10    11    1
    39    12    14    1
    40     5     4    1
    41     4     1    1
    42     1     2    1
    43     1    24    1
    44     1     3    2
    45    24    25    1
    46    28    25    1
    47    25    26    1
    48    25    27    2
@<TRIPOS>MOLECULE
UD2
 46 48 0 0 0
SMALL
GASTEIGER

@<TRIPOS>ATOM
      1 P          23.1190   73.3009   -4.0908 P.3     1  UNL1        0.2189
      2 O          23.5677   74.5279   -5.0313 O.3     1  UNL1       -0.4371
      3 O          24.1667   72.2564   -4.1082 O.2     1  UNL1       -0.5170
      4 O          22.9118   73.8284   -2.5833 O.3     1  UNL1       -0.3112
      5 C          21.8782   73.3421   -1.7250 C.3     1  UNL1        0.1811
      6 C          23.8313   71.8632    0.9084 C.3     1  UNL1        0.2383
      7 C          22.4338   72.0888    1.5393 C.3     1  UNL1        0.1895
      8 O          22.1553   71.0973    2.5299 O.3     1  UNL1       -0.3779
      9 C          21.4957   71.9282    0.3180 C.3     1  UNL1        0.1713
     10 C          22.4128   72.1719   -0.8957 C.3     1  UNL1        0.1764
     11 O          23.7188   72.4887   -0.3884 O.3     1  UNL1       -0.3308
     12 O          20.9515   70.6079    0.2771 O.3     1  UNL1       -0.3794
     13 H          21.2922   71.1962    2.9540 H       1  UNL1        0.2106
     14 H          20.4130   70.3797    1.0468 H       1  UNL1        0.2105
     15 N          24.8699   72.5164    1.7083 N.ar    1  UNL1       -0.2551
     16 C          25.7768   71.7684    2.3617 C.ar    1  UNL1        0.3323
     17 N          26.7421   72.3419    3.1043 N.ar    1  UNL1       -0.2743
     18 C          26.8150   73.6849    3.2028 C.ar    1  UNL1        0.2626
     19 C          25.8675   74.4844    2.5194 C.ar    1  UNL1        0.0795
     20 C          24.9130   73.8828    1.7787 C.ar    1  UNL1        0.0869
     21 O          25.7233   70.5564    2.2817 O.2     1  UNL1       -0.2464
     22 O          27.6885   74.2052    3.8742 O.2     1  UNL1       -0.2670
     23 H          27.3873   71.7878    3.5699 H       1  UNL1        0.1734
     24 O          21.7358   72.6833   -4.6374 O.3     1  UNL1       -0.2703
     25 P          20.9946   72.6936   -6.0669 P.3     1  UNL1        0.2208
     26 O          20.6309   74.2095   -6.4713 O.3     1  UNL1       -0.4371
     27 O          21.8894   72.1116   -7.0911 O.2     1  UNL1       -0.5170
     28 O          19.6432   71.8228   -5.9769 O.3     1  UNL1       -0.2865
     29 C          18.3944   72.2661   -6.5109 C.3     1  UNL1        0.2611
     30 C          17.2475   71.6725   -5.6894 C.3     1  UNL1        0.1582
     31 C          17.2863   70.1454   -5.8035 C.3     1  UNL1        0.1625
     32 C          17.2059   69.7524   -7.2812 C.3     1  UNL1        0.1686
     33 C          18.3548   70.4203   -8.0415 C.3     1  UNL1        0.1760
     34 O          16.1752   69.5859   -5.0994 O.3     1  UNL1       -0.3801
     35 O          15.9575   70.1865   -7.8236 O.3     1  UNL1       -0.3794
     36 O          18.2782   71.8367   -7.8690 O.3     1  UNL1       -0.3263
     37 H          16.1372   68.6200   -5.1292 H       1  UNL1        0.2105
     38 H          15.8382   69.9710   -8.7592 H       1  UNL1        0.2105
     39 C          18.1118   71.2887   -3.4436 C.2     1  UNL1        0.2231
     40 C          18.2675   71.6892   -2.0000 C.3     1  UNL1        0.0946
     41 N          17.3983   72.0625   -4.2852 N.am    1  UNL1       -0.2994
     42 O          18.6287   70.2689   -3.8496 O.2     1  UNL1       -0.2751
     43 H          16.9840   72.8775   -3.9609 H       1  UNL1        0.1496
     44 C          18.2469   70.0808   -9.5293 C.3     1  UNL1        0.1693
     45 O          18.6258   71.2183  -10.3069 O.3     1  UNL1       -0.3794
     46 H          18.5811   71.0750  -11.2622 H       1  UNL1        0.2105
@<TRIPOS>BOND
     1    29    30    1
     2    30    41    1
     3    30    31    1
     4    31    34    1
     5    31    32    1
     6    32    35    1
     7    32    33    1
     8    33    36    1
     9    33    44    1
    10    39    40    1
    11    39    42    2
    12    39    41   am
    13    41    43    1
    14    29    28    1
    15    34    37    1
    16    35    38    1
    17    29    36    1
    18    44    45    1
    19    45    46    1
    20    15     6    1
    21    15    16   ar
    22    16    21    2
    23    16    17   ar
    24    17    23    1
    25    17    18   ar
    26    18    19   ar
    27    19    20   ar
    28    15    20   ar
    29    18    22    2
    30     6     7    1
    31     6    11    1
    32     7     9    1
    33     7     8    1
    34     8    13    1
    35     9    10    1
    36     9    12    1
    37    10     5    1
    38    10    11    1
    39    12    14    1
    40     5     4    1
    41     4     1    1
    42     1     2    1
    43     1    24    1
    44     1     3    2
    45    24    25    1
    46    28    25    1
    47    25    26    1
    48    25    27    2
@<TRIPOS>MOLECULE
UD2
 46 48 0 0 0
SMALL
GASTEIGER

@<TRIPOS>ATOM
      1 P          21.9276   71.6739   -0.6508 P.3     1  UNL1        0.2189
      2 O          23.3463   71.0307   -1.0570 O.3     1  UNL1       -0.4371
      3 O          20.9974   70.5992   -0.2402 O.2     1  UNL1       -0.5170
      4 O          22.1347   72.7009    0.5724 O.3     1  UNL1       -0.3112
      5 C          23.2093   72.5893    1.5074 C.3     1  UNL1        0.1811
      6 C          22.8168   73.2413    5.0227 C.3     1  UNL1        0.2383
      7 C          21.6540   74.0148    4.3507 C.3     1  UNL1        0.1895
      8 O          20.5188   74.0819    5.2159 O.3     1  UNL1       -0.3779
      9 C          21.3528   73.1369    3.1113 C.3     1  UNL1        0.1713
     10 C          22.6437   72.3220    2.9044 C.3     1  UNL1        0.1764
     11 O          23.5842   72.7495    3.9025 O.3     1  UNL1       -0.3308
     12 O          20.2488   72.2684    3.3716 O.3     1  UNL1       -0.3794
     13 H          19.7652   74.5569    4.8402 H       1  UNL1        0.2106
     14 H          19.4221   72.7297    3.5671 H       1  UNL1        0.2105
     15 N          23.6261   74.1411    5.8476 N.ar    1  UNL1       -0.2551
     16 C          23.2479   74.4082    7.1103 C.ar    1  UNL1        0.3323
     17 N          23.9724   75.2315    7.8910 N.ar    1  UNL1       -0.2743
     18 C          25.0972   75.8030    7.4149 C.ar    1  UNL1        0.2626
     19 C          25.5076   75.5298    6.0878 C.ar    1  UNL1        0.0795
     20 C          24.7644   74.6972    5.3289 C.ar    1  UNL1        0.0869
     21 O          22.2360   73.8998    7.5530 O.2     1  UNL1       -0.2464
     22 O          25.7540   76.5481    8.1206 O.2     1  UNL1       -0.2670
     23 H          23.6848   75.4144    8.7988 H       1  UNL1        0.1734
     24 O          21.3139   72.4618   -1.9141 O.3     1  UNL1       -0.2703
     25 P          19.8801   72.4544   -2.6471 P.3     1  UNL1        0.2208
     26 O          18.8414   71.5764   -1.7845 O.3     1  UNL1       -0.4371
     27 O          19.3771   73.8409   -2.7614 O.2     1  UNL1       -0.5170
     28 O          20.0323   71.8153   -4.1171 O.3     1  UNL1       -0.2865
     29 C          19.4668   72.4098   -5.2868 C.3     1  UNL1        0.2611
     30 C          19.1827   71.3228   -6.3263 C.3     1  UNL1        0.1582
     31 C          20.5025   70.6601   -6.7331 C.3     1  UNL1        0.1625
     32 C          21.4585   71.7330   -7.2615 C.3     1  UNL1        0.1686
     33 C          21.6549   72.8044   -6.1856 C.3     1  UNL1        0.1760
     34 O          20.2555   69.6941   -7.7573 O.3     1  UNL1       -0.3801
     35 O          20.9045   72.3301   -8.4354 O.3     1  UNL1       -0.3794
     36 O          20.3866   73.3587   -5.8306 O.3     1  UNL1       -0.3263
     37 H          21.0492   69.2339   -8.0630 H       1  UNL1        0.2105
     38 H          21.4583   73.0212   -8.8247 H       1  UNL1        0.2105
     39 C          17.2712   69.8198   -6.4832 C.2     1  UNL1        0.2231
     40 C          16.3499   68.7854   -5.8917 C.3     1  UNL1        0.0946
     41 N          18.2868   70.3169   -5.7501 N.am    1  UNL1       -0.2994
     42 O          17.0993   70.2061   -7.6205 O.2     1  UNL1       -0.2751
     43 H          18.4240   70.0091   -4.8404 H       1  UNL1        0.1496
     44 C          22.5618   73.9108   -6.7276 C.3     1  UNL1        0.1693
     45 O          23.3226   74.4719   -5.6558 O.3     1  UNL1       -0.3794
     46 H          23.9211   75.1814   -5.9269 H       1  UNL1        0.2105
@<TRIPOS>BOND
     1    29    30    1
     2    30    41    1
     3    30    31    1
     4    31    34    1
     5    31    32    1
     6    32    35    1
     7    32    33    1
     8    33    36    1
     9    33    44    1
    10    39    40    1
    11    39    42    2
    12    39    41   am
    13    41    43    1
    14    29    28    1
    15    34    37    1
    16    35    38    1
    17    29    36    1
    18    44    45    1
    19    45    46    1
    20    15     6    1
    21    15    16   ar
    22    16    21    2
    23    16    17   ar
    24    17    23    1
    25    17    18   ar
    26    18    19   ar
    27    19    20   ar
    28    15    20   ar
    29    18    22    2
    30     6     7    1
    31     6    11    1
    32     7     9    1
    33     7     8    1
    34     8    13    1
    35     9    10    1
    36     9    12    1
    37    10     5    1
    38    10    11    1
    39    12    14    1
    40     5     4    1
    41     4     1    1
    42     1     2    1
    43     1    24    1
    44     1     3    2
    45    24    25    1
    46    28    25    1
    47    25    26    1
    48    25    27    2
@<TRIPOS>MOLECULE
UD2
 46 48 0 0 0
SMALL
GASTEIGER

@<TRIPOS>ATOM
      1 P          21.9093   72.7089   -6.2525 P.3     1  UNL1        0.2189
      2 O          23.0571   73.2440   -7.2463 O.3     1  UNL1       -0.4371
      3 O          20.8815   73.7581   -6.0746 O.2     1  UNL1       -0.5170
      4 O          21.2281   71.3912   -6.8798 O.3     1  UNL1       -0.3112
      5 C          20.6052   71.3754   -8.1655 C.3     1  UNL1        0.1811
      6 C          17.4420   70.2048   -6.9162 C.3     1  UNL1        0.2383
      7 C          17.0722   71.1619   -8.0779 C.3     1  UNL1        0.1895
      8 O          15.8582   70.7515   -8.7099 O.3     1  UNL1       -0.3779
      9 C          18.2777   70.9929   -9.0348 C.3     1  UNL1        0.1713
     10 C          19.3973   70.4356   -8.1352 C.3     1  UNL1        0.1764
     11 O          18.8736   70.3559   -6.8000 O.3     1  UNL1       -0.3308
     12 O          17.9629   70.0655  -10.0748 O.3     1  UNL1       -0.3794
     13 H          15.5846   71.3194   -9.4429 H       1  UNL1        0.2106
     14 H          17.2250   70.3387  -10.6364 H       1  UNL1        0.2105
     15 N          16.7772   70.6160   -5.6776 N.ar    1  UNL1       -0.2551
     16 C          16.4504   69.6908   -4.7579 C.ar    1  UNL1        0.3323
     17 N          15.8387   70.0401   -3.6107 N.ar    1  UNL1       -0.2743
     18 C          15.5444   71.3330   -3.3649 C.ar    1  UNL1        0.2626
     19 C          15.8837   72.3176   -4.3239 C.ar    1  UNL1        0.0795
     20 C          16.5003   71.9394   -5.4633 C.ar    1  UNL1        0.0869
     21 O          16.7099   68.5213   -4.9661 O.2     1  UNL1       -0.2464
     22 O          14.9912   71.6506   -2.3269 O.2     1  UNL1       -0.2670
     23 H          15.6089   69.3602   -2.9588 H       1  UNL1        0.1734
     24 O          22.5607   72.3476   -4.8248 O.3     1  UNL1       -0.2703
     25 P          23.3598   73.1962   -3.7138 P.3     1  UNL1        0.2208
     26 O          24.9308   73.1982   -4.0682 O.3     1  UNL1       -0.4371
     27 O          22.8563   74.5871   -3.6987 O.2     1  UNL1       -0.5170
     28 O          23.1367   72.5284   -2.2657 O.3     1  UNL1       -0.2865
     29 C          22.5940   73.2433   -1.1541 C.3     1  UNL1        0.2611
     30 C          22.4795   72.3056    0.0502 C.3     1  UNL1        0.1582
     31 C          21.5108   71.1686   -0.2893 C.3     1  UNL1        0.1625
     32 C          20.1593   71.7663   -0.6901 C.3     1  UNL1        0.1686
     33 C          20.3633   72.7251   -1.8661 C.3     1  UNL1        0.1760
     34 O          21.3411   70.3286    0.8548 O.3     1  UNL1       -0.3801
     35 O          19.6051   72.4790    0.4172 O.3     1  UNL1       -0.3794
     36 O          21.2980   73.7401   -1.4945 O.3     1  UNL1       -0.3263
     37 H          20.7394   69.5854    0.7108 H       1  UNL1        0.2105
     38 H          18.7466   72.8858    0.2340 H       1  UNL1        0.2105
     39 C          24.3430   71.9500    1.5794 C.2     1  UNL1        0.2231
     40 C          25.6981   71.3774    1.9025 C.3     1  UNL1        0.0946
     41 N          23.7978   71.7485    0.3636 N.am    1  UNL1       -0.2994
     42 O          23.7414   72.5933    2.4140 O.2     1  UNL1       -0.2751
     43 H          24.2789   71.2351   -0.3043 H       1  UNL1        0.1496
     44 C          19.0268   73.3721   -2.2341 C.3     1  UNL1        0.1693
     45 O          19.0412   73.7453   -3.6136 O.3     1  UNL1       -0.3794
     46 H          18.2235   74.1628   -3.9172 H       1  UNL1        0.2105
@<TRIPOS>BOND
     1    29    30    1
     2    30    41    1
     3    30    31    1
     4    31    34    1
     5    31    32    1
     6    32    35    1
     7    32    33    1
     8    33    36    1
     9    33    44    1
    10    39    40    1
    11    39    42    2
    12    39    41   am
    13    41    43    1
    14    29    28    1
    15    34    37    1
    16    35    38    1
    17    29    36    1
    18    44    45    1
    19    45    46    1
    20    15     6    1
    21    15    16   ar
    22    16    21    2
    23    16    17   ar
    24    17    23    1
    25    17    18   ar
    26    18    19   ar
    27    19    20   ar
    28    15    20   ar
    29    18    22    2
    30     6     7    1
    31     6    11    1
    32     7     9    1
    33     7     8    1
    34     8    13    1
    35     9    10    1
    36     9    12    1
    37    10     5    1
    38    10    11    1
    39    12    14    1
    40     5     4    1
    41     4     1    1
    42     1     2    1
    43     1    24    1
    44     1     3    2
    45    24    25    1
    46    28    25    1
    47    25    26    1
    48    25    27    2
