
 OpenBabel04092510493D

 24 24  0  0  1  0  0  0  0  0999 V2000
    0.9607    0.1877    0.0960 C   0  0  0  0  0  0  0  0  0  0  0  0
    0.5872   -0.9192    1.0964 C   0  0  2  0  0  0  0  0  0  0  0  0
    1.4441   -2.1729    0.8536 C   0  0  2  0  0  0  0  0  0  0  0  0
    0.9841   -3.3416    1.7294 C   0  0  1  0  0  0  0  0  0  0  0  0
   -0.5244   -3.5616    1.5890 C   0  0  2  0  0  0  0  0  0  0  0  0
   -1.2786   -2.2369    1.8174 C   0  0  2  0  0  0  0  0  0  0  0  0
   -0.8083   -1.2015    0.9674 O   0  0  0  0  0  0  0  0  0  0  0  0
   -1.2666   -1.8431    3.1840 O   0  0  0  0  0  0  0  0  0  0  0  0
   -0.9520   -4.5778    2.5013 O   0  0  0  0  0  0  0  0  0  0  0  0
    1.7543   -4.4892    1.3411 O   0  0  0  0  0  0  0  0  0  0  0  0
    2.8260   -1.8995    1.1338 O   0  0  0  0  0  0  0  0  0  0  0  0
    2.3027    0.6303    0.2485 O   0  0  0  0  0  0  0  0  0  0  0  0
    0.3004    1.0535    0.2275 H   0  0  0  0  0  0  0  0  0  0  0  0
    0.8187   -0.1566   -0.9351 H   0  0  0  0  0  0  0  0  0  0  0  0
    0.7926   -0.5379    2.1029 H   0  0  0  0  0  0  0  0  0  0  0  0
    1.3862   -2.4737   -0.1995 H   0  0  0  0  0  0  0  0  0  0  0  0
    1.2485   -3.1606    2.7766 H   0  0  0  0  0  0  0  0  0  0  0  0
   -0.7334   -3.9298    0.5767 H   0  0  0  0  0  0  0  0  0  0  0  0
   -2.3341   -2.4006    1.5742 H   0  0  0  0  0  0  0  0  0  0  0  0
   -0.3481   -1.7903    3.4986 H   0  0  0  0  0  0  0  0  0  0  0  0
   -1.2317   -4.1345    3.3263 H   0  0  0  0  0  0  0  0  0  0  0  0
    1.1672   -5.1087    0.8695 H   0  0  0  0  0  0  0  0  0  0  0  0
    3.2447   -2.7763    1.2702 H   0  0  0  0  0  0  0  0  0  0  0  0
    2.8524   -0.1577    0.4504 H   0  0  0  0  0  0  0  0  0  0  0  0
  1  2  1  0  0  0  0
  1 12  1  0  0  0  0
  1 13  1  0  0  0  0
  1 14  1  0  0  0  0
  2  3  1  0  0  0  0
  2  7  1  0  0  0  0
  2 15  1  1  0  0  0
  3  4  1  0  0  0  0
  3 11  1  0  0  0  0
  3 16  1  6  0  0  0
  4  5  1  0  0  0  0
  4 10  1  0  0  0  0
  4 17  1  1  0  0  0
  5  6  1  0  0  0  0
  5  9  1  0  0  0  0
  5 18  1  6  0  0  0
  6  7  1  0  0  0  0
  6  8  1  0  0  0  0
  6 19  1  6  0  0  0
  8 20  1  0  0  0  0
  9 21  1  0  0  0  0
 10 22  1  0  0  0  0
 11 23  1  0  0  0  0
 12 24  1  0  0  0  0
M  END
$$$$
