


 17 17  0  0  0  0  0  0  0  0999 V2000
   -4.4220    8.4765   13.3634 C   0  0  0  0  0  0  0  0  0  0  0  0
   -4.1172    9.9651   13.1264 C   0  0  0  0  0  0  0  0  0  0  0  0
   -2.6564   10.2937   13.4467 C   0  0  0  0  0  0  0  0  0  0  0  0
   -1.7139    9.3259   12.7264 C   0  0  0  0  0  0  0  0  0  0  0  0
   -2.1328    7.8690   13.0055 C   0  0  0  0  0  0  0  0  0  0  0  0
   -3.4939    7.6328   12.6776 O   0  0  0  0  0  0  0  0  0  0  0  0
   -1.8356    7.4728   14.3387 O   0  0  0  0  0  0  0  0  0  0  0  0
   -0.3639    9.5747   13.1305 O   0  0  0  0  0  0  0  0  0  0  0  0
   -2.4403   11.6636   13.0755 O   0  0  0  0  0  0  0  0  0  0  0  0
   -4.9668   10.7883   13.9408 O   0  0  0  0  0  0  0  0  0  0  0  0
   -2.2541    8.0907   14.9620 H   0  0  0  0  0  0  0  0  0  0  0  0
   -0.1692    8.9863   13.8863 H   0  0  0  0  0  0  0  0  0  0  0  0
   -1.8729   11.6818   12.2827 H   0  0  0  0  0  0  0  0  0  0  0  0
   -4.5217   11.6615   13.9857 H   0  0  0  0  0  0  0  0  0  0  0  0
   -5.8436    8.1373   12.8845 C   0  0  0  0  0  0  0  0  0  0  0  0
   -6.8437    8.5641   13.7997 O   0  0  0  0  0  0  0  0  0  0  0  0
   -6.5616    9.4320   14.1618 H   0  0  0  0  0  0  0  0  0  0  0  0
 15  1  1  0
 15 16  1  0
  1  2  1  0
  1  6  1  0
  2  3  1  0
  2 10  1  0
  3  4  1  0
  3  9  1  0
  4  5  1  0
  4  8  1  0
  5  6  1  0
  5  7  1  0
  7 11  1  0
  8 12  1  0
  9 13  1  0
 10 14  1  0
 16 17  1  0
M  END
> <minimizedAffinity>
-3.99610

> <CNNscore>
0.9554941058

> <CNNaffinity>
2.8138008118

> <CNN_VS>
2.6885700226

> <CNNaffinity_variance>
0.4147564471

$$$$



 17 17  0  0  0  0  0  0  0  0999 V2000
   -1.7032   10.8478   13.5780 C   0  0  0  0  0  0  0  0  0  0  0  0
   -1.2915    9.5097   12.9417 C   0  0  0  0  0  0  0  0  0  0  0  0
   -2.3164    8.4116   13.2388 C   0  0  0  0  0  0  0  0  0  0  0  0
   -3.7297    8.8803   12.8831 C   0  0  0  0  0  0  0  0  0  0  0  0
   -4.0204   10.2422   13.5439 C   0  0  0  0  0  0  0  0  0  0  0  0
   -3.0376   11.2138   13.2187 O   0  0  0  0  0  0  0  0  0  0  0  0
   -4.2026   10.1268   14.9497 O   0  0  0  0  0  0  0  0  0  0  0  0
   -4.6820    7.8873   13.2768 O   0  0  0  0  0  0  0  0  0  0  0  0
   -1.9127    7.2467   12.5032 O   0  0  0  0  0  0  0  0  0  0  0  0
   -0.0087    9.0921   13.4344 O   0  0  0  0  0  0  0  0  0  0  0  0
   -3.4244    9.6972   15.3437 H   0  0  0  0  0  0  0  0  0  0  0  0
   -4.9832    8.1094   14.1798 H   0  0  0  0  0  0  0  0  0  0  0  0
   -2.5444    7.1095   11.7731 H   0  0  0  0  0  0  0  0  0  0  0  0
    0.0418    8.1293   13.2525 H   0  0  0  0  0  0  0  0  0  0  0  0
   -0.7482   11.9689   13.1345 C   0  0  0  0  0  0  0  0  0  0  0  0
    0.2631   11.5055   12.2499 O   0  0  0  0  0  0  0  0  0  0  0  0
   -0.1479   10.8440   11.6521 H   0  0  0  0  0  0  0  0  0  0  0  0
 15  1  1  0
 15 16  1  0
  1  2  1  0
  1  6  1  0
  2  3  1  0
  2 10  1  0
  3  4  1  0
  3  9  1  0
  4  5  1  0
  4  8  1  0
  5  6  1  0
  5  7  1  0
  7 11  1  0
  8 12  1  0
  9 13  1  0
 10 14  1  0
 16 17  1  0
M  END
> <minimizedAffinity>
-4.23220

> <CNNscore>
0.9532715082

> <CNNaffinity>
2.7467775345

> <CNN_VS>
2.6184246540

> <CNNaffinity_variance>
0.4530096948

$$$$



 17 17  0  0  0  0  0  0  0  0999 V2000
   -4.3287    9.8143   13.5513 C   0  0  0  0  0  0  0  0  0  0  0  0
   -3.0192   10.4254   13.0252 C   0  0  0  0  0  0  0  0  0  0  0  0
   -1.8130    9.5523   13.3819 C   0  0  0  0  0  0  0  0  0  0  0  0
   -2.0539    8.0997   12.9630 C   0  0  0  0  0  0  0  0  0  0  0  0
   -3.4055    7.6044   13.5141 C   0  0  0  0  0  0  0  0  0  0  0  0
   -4.4790    8.4540   13.1380 O   0  0  0  0  0  0  0  0  0  0  0  0
   -3.3659    7.3964   14.9205 O   0  0  0  0  0  0  0  0  0  0  0  0
   -0.9685    7.2811   13.4096 O   0  0  0  0  0  0  0  0  0  0  0  0
   -0.6664   10.1347   12.7437 O   0  0  0  0  0  0  0  0  0  0  0  0
   -2.8203   11.7376   13.5743 O   0  0  0  0  0  0  0  0  0  0  0  0
   -3.0779    8.2136   15.3616 H   0  0  0  0  0  0  0  0  0  0  0  0
   -1.2100    6.9245   14.2871 H   0  0  0  0  0  0  0  0  0  0  0  0
   -0.3912    9.5508   12.0129 H   0  0  0  0  0  0  0  0  0  0  0  0
   -1.8634   11.9253   13.4657 H   0  0  0  0  0  0  0  0  0  0  0  0
   -5.5375   10.6196   13.0454 C   0  0  0  0  0  0  0  0  0  0  0  0
   -6.4894    9.8081   12.3705 O   0  0  0  0  0  0  0  0  0  0  0  0
   -6.5409    8.9527   12.8496 H   0  0  0  0  0  0  0  0  0  0  0  0
 15  1  1  0
 15 16  1  0
  1  2  1  0
  1  6  1  0
  2  3  1  0
  2 10  1  0
  3  4  1  0
  3  9  1  0
  4  5  1  0
  4  8  1  0
  5  6  1  0
  5  7  1  0
  7 11  1  0
  8 12  1  0
  9 13  1  0
 10 14  1  0
 16 17  1  0
M  END
> <minimizedAffinity>
-4.40982

> <CNNscore>
0.9484995604

> <CNNaffinity>
2.8858816624

> <CNN_VS>
2.7372574806

> <CNNaffinity_variance>
0.3698792458

$$$$



 17 17  0  0  0  0  0  0  0  0999 V2000
   -2.4249    9.5672   13.0526 C   0  0  0  0  0  0  0  0  0  0  0  0
   -1.8178    8.2357   13.5254 C   0  0  0  0  0  0  0  0  0  0  0  0
   -0.2886    8.3029   13.5665 C   0  0  0  0  0  0  0  0  0  0  0  0
    0.1778    9.5322   14.3508 C   0  0  0  0  0  0  0  0  0  0  0  0
   -0.5183   10.7995   13.8166 C   0  0  0  0  0  0  0  0  0  0  0  0
   -1.9323   10.6714   13.8152 O   0  0  0  0  0  0  0  0  0  0  0  0
   -0.0228   11.1844   12.5402 O   0  0  0  0  0  0  0  0  0  0  0  0
    1.6028    9.6407   14.2775 O   0  0  0  0  0  0  0  0  0  0  0  0
    0.1733    7.0688   14.1362 O   0  0  0  0  0  0  0  0  0  0  0  0
   -2.2114    7.1653   12.6524 O   0  0  0  0  0  0  0  0  0  0  0  0
   -0.1099   10.4405   11.9202 H   0  0  0  0  0  0  0  0  0  0  0  0
    1.8158   10.2153   13.5160 H   0  0  0  0  0  0  0  0  0  0  0  0
    0.5212    7.2528   15.0284 H   0  0  0  0  0  0  0  0  0  0  0  0
   -1.5617    6.4468   12.8084 H   0  0  0  0  0  0  0  0  0  0  0  0
   -3.9578    9.5301   13.1724 C   0  0  0  0  0  0  0  0  0  0  0  0
   -4.4995    8.2569   12.8473 O   0  0  0  0  0  0  0  0  0  0  0  0
   -3.8884    7.5763   13.2037 H   0  0  0  0  0  0  0  0  0  0  0  0
 15  1  1  0
 15 16  1  0
  1  2  1  0
  1  6  1  0
  2  3  1  0
  2 10  1  0
  3  4  1  0
  3  9  1  0
  4  5  1  0
  4  8  1  0
  5  6  1  0
  5  7  1  0
  7 11  1  0
  8 12  1  0
  9 13  1  0
 10 14  1  0
 16 17  1  0
M  END
> <minimizedAffinity>
-4.58987

> <CNNscore>
0.9108184576

> <CNNaffinity>
2.7210915089

> <CNN_VS>
2.4784202576

> <CNNaffinity_variance>
0.4239677191

$$$$



 17 17  0  0  0  0  0  0  0  0999 V2000
   -3.0139   10.6174   13.4688 C   0  0  0  0  0  0  0  0  0  0  0  0
   -3.3221    9.1108   13.4806 C   0  0  0  0  0  0  0  0  0  0  0  0
   -2.1078    8.2892   13.0388 C   0  0  0  0  0  0  0  0  0  0  0  0
   -0.8634    8.6932   13.8336 C   0  0  0  0  0  0  0  0  0  0  0  0
   -0.6724   10.2218   13.7821 C   0  0  0  0  0  0  0  0  0  0  0  0
   -1.8314   10.9194   14.2132 O   0  0  0  0  0  0  0  0  0  0  0  0
   -0.2369   10.6638   12.5023 O   0  0  0  0  0  0  0  0  0  0  0  0
    0.2809    7.9998   13.3261 O   0  0  0  0  0  0  0  0  0  0  0  0
   -2.4513    6.9052   13.2045 O   0  0  0  0  0  0  0  0  0  0  0  0
   -4.4238    8.8160   12.6075 O   0  0  0  0  0  0  0  0  0  0  0  0
   -0.8623   10.3586   11.8233 H   0  0  0  0  0  0  0  0  0  0  0  0
    0.6953    8.5707   12.6495 H   0  0  0  0  0  0  0  0  0  0  0  0
   -1.9407    6.5491   13.9550 H   0  0  0  0  0  0  0  0  0  0  0  0
   -4.3589    7.8554   12.4181 H   0  0  0  0  0  0  0  0  0  0  0  0
   -4.1887   11.4098   14.0668 C   0  0  0  0  0  0  0  0  0  0  0  0
   -4.5564   12.5261   13.2676 O   0  0  0  0  0  0  0  0  0  0  0  0
   -4.4785   12.2546   12.3273 H   0  0  0  0  0  0  0  0  0  0  0  0
 15  1  1  0
 15 16  1  0
  1  2  1  0
  1  6  1  0
  2  3  1  0
  2 10  1  0
  3  4  1  0
  3  9  1  0
  4  5  1  0
  4  8  1  0
  5  6  1  0
  5  7  1  0
  7 11  1  0
  8 12  1  0
  9 13  1  0
 10 14  1  0
 16 17  1  0
M  END
> <minimizedAffinity>
-4.31204

> <CNNscore>
0.8936492205

> <CNNaffinity>
2.9858133793

> <CNN_VS>
2.6682698727

> <CNNaffinity_variance>
0.2486174852

$$$$



 17 17  0  0  0  0  0  0  0  0999 V2000
   -4.1478    9.9629   13.8712 C   0  0  0  0  0  0  0  0  0  0  0  0
   -3.6948    8.5620   13.4269 C   0  0  0  0  0  0  0  0  0  0  0  0
   -2.2931    8.5977   12.8116 C   0  0  0  0  0  0  0  0  0  0  0  0
   -1.3137    9.3219   13.7389 C   0  0  0  0  0  0  0  0  0  0  0  0
   -1.8838   10.6946   14.1470 C   0  0  0  0  0  0  0  0  0  0  0  0
   -3.1792   10.5863   14.7179 O   0  0  0  0  0  0  0  0  0  0  0  0
   -1.8577   11.6258   13.0723 O   0  0  0  0  0  0  0  0  0  0  0  0
   -0.0416    9.4476   13.0958 O   0  0  0  0  0  0  0  0  0  0  0  0
   -1.9123    7.2387   12.5490 O   0  0  0  0  0  0  0  0  0  0  0  0
   -4.6107    8.0195   12.4627 O   0  0  0  0  0  0  0  0  0  0  0  0
   -2.3321   11.2543   12.3092 H   0  0  0  0  0  0  0  0  0  0  0  0
   -0.0285   10.3090   12.6341 H   0  0  0  0  0  0  0  0  0  0  0  0
   -1.2139    6.9871   13.1812 H   0  0  0  0  0  0  0  0  0  0  0  0
   -4.1160    7.3085   12.0018 H   0  0  0  0  0  0  0  0  0  0  0  0
   -5.4838    9.8794   14.6287 C   0  0  0  0  0  0  0  0  0  0  0  0
   -6.5969    9.7354   13.7567 O   0  0  0  0  0  0  0  0  0  0  0  0
   -6.3240    9.1401   13.0253 H   0  0  0  0  0  0  0  0  0  0  0  0
 15  1  1  0
 15 16  1  0
  1  2  1  0
  1  6  1  0
  2  3  1  0
  2 10  1  0
  3  4  1  0
  3  9  1  0
  4  5  1  0
  4  8  1  0
  5  6  1  0
  5  7  1  0
  7 11  1  0
  8 12  1  0
  9 13  1  0
 10 14  1  0
 16 17  1  0
M  END
> <minimizedAffinity>
-3.70699

> <CNNscore>
0.8862848878

> <CNNaffinity>
2.8121578693

> <CNN_VS>
2.4923729897

> <CNNaffinity_variance>
0.2853837013

$$$$



 17 17  0  0  0  0  0  0  0  0999 V2000
    0.1091    9.5025   14.4099 C   0  0  0  0  0  0  0  0  0  0  0  0
   -0.3647    8.3063   13.5675 C   0  0  0  0  0  0  0  0  0  0  0  0
   -1.8913    8.2733   13.4542 C   0  0  0  0  0  0  0  0  0  0  0  0
   -2.4291    9.6311   12.9952 C   0  0  0  0  0  0  0  0  0  0  0  0
   -1.8637   10.7555   13.8851 C   0  0  0  0  0  0  0  0  0  0  0  0
   -0.4450   10.7326   13.9372 O   0  0  0  0  0  0  0  0  0  0  0  0
   -2.4389   10.7489   15.1858 O   0  0  0  0  0  0  0  0  0  0  0  0
   -3.8600    9.6145   13.0092 O   0  0  0  0  0  0  0  0  0  0  0  0
   -2.2251    7.2069   12.5529 O   0  0  0  0  0  0  0  0  0  0  0  0
    0.0838    7.0722   14.1495 O   0  0  0  0  0  0  0  0  0  0  0  0
   -2.3134    9.8744   15.5919 H   0  0  0  0  0  0  0  0  0  0  0  0
   -4.1501    9.9479   13.8810 H   0  0  0  0  0  0  0  0  0  0  0  0
   -2.5525    7.5976   11.7216 H   0  0  0  0  0  0  0  0  0  0  0  0
   -0.4964    6.3773   13.7710 H   0  0  0  0  0  0  0  0  0  0  0  0
    1.6432    9.6079   14.3764 C   0  0  0  0  0  0  0  0  0  0  0  0
    2.1063   10.5071   13.3778 O   0  0  0  0  0  0  0  0  0  0  0  0
    1.4870   11.2686   13.3561 H   0  0  0  0  0  0  0  0  0  0  0  0
 15  1  1  0
 15 16  1  0
  1  2  1  0
  1  6  1  0
  2  3  1  0
  2 10  1  0
  3  4  1  0
  3  9  1  0
  4  5  1  0
  4  8  1  0
  5  6  1  0
  5  7  1  0
  7 11  1  0
  8 12  1  0
  9 13  1  0
 10 14  1  0
 16 17  1  0
M  END
> <minimizedAffinity>
-4.34232

> <CNNscore>
0.8833906651

> <CNNaffinity>
2.8046472073

> <CNN_VS>
2.4775991440

> <CNNaffinity_variance>
0.2806608975

$$$$



 17 17  0  0  0  0  0  0  0  0999 V2000
   -2.5197   10.5984   14.0106 C   0  0  0  0  0  0  0  0  0  0  0  0
   -2.0779    9.5271   12.9996 C   0  0  0  0  0  0  0  0  0  0  0  0
   -2.2468    8.1167   13.5713 C   0  0  0  0  0  0  0  0  0  0  0  0
   -3.6594    7.9249   14.1292 C   0  0  0  0  0  0  0  0  0  0  0  0
   -4.0078    9.0701   15.1003 C   0  0  0  0  0  0  0  0  0  0  0  0
   -3.8381   10.3468   14.5028 O   0  0  0  0  0  0  0  0  0  0  0  0
   -3.2984    8.9646   16.3285 O   0  0  0  0  0  0  0  0  0  0  0  0
   -3.7598    6.6455   14.7624 O   0  0  0  0  0  0  0  0  0  0  0  0
   -1.9323    7.1935   12.5179 O   0  0  0  0  0  0  0  0  0  0  0  0
   -0.7019    9.7175   12.6343 O   0  0  0  0  0  0  0  0  0  0  0  0
   -2.3435    8.9257   16.1496 H   0  0  0  0  0  0  0  0  0  0  0  0
   -3.5502    6.7680   15.7092 H   0  0  0  0  0  0  0  0  0  0  0  0
   -2.7583    6.7633   12.2289 H   0  0  0  0  0  0  0  0  0  0  0  0
   -0.4070    8.8577   12.2648 H   0  0  0  0  0  0  0  0  0  0  0  0
   -2.4938   11.9922   13.3608 C   0  0  0  0  0  0  0  0  0  0  0  0
   -3.7892   12.5666   13.2508 O   0  0  0  0  0  0  0  0  0  0  0  0
   -4.2865   12.3316   14.0640 H   0  0  0  0  0  0  0  0  0  0  0  0
 15  1  1  0
 15 16  1  0
  1  2  1  0
  1  6  1  0
  2  3  1  0
  2 10  1  0
  3  4  1  0
  3  9  1  0
  4  5  1  0
  4  8  1  0
  5  6  1  0
  5  7  1  0
  7 11  1  0
  8 12  1  0
  9 13  1  0
 10 14  1  0
 16 17  1  0
M  END
> <minimizedAffinity>
-3.97577

> <CNNscore>
0.8741006255

> <CNNaffinity>
2.8971614838

> <CNN_VS>
2.5324106216

> <CNNaffinity_variance>
0.2990651131

$$$$



 17 17  0  0  0  0  0  0  0  0999 V2000
   -0.8777   10.7503   14.3162 C   0  0  0  0  0  0  0  0  0  0  0  0
    0.0597    9.5315   14.3423 C   0  0  0  0  0  0  0  0  0  0  0  0
   -0.7061    8.2325   14.0767 C   0  0  0  0  0  0  0  0  0  0  0  0
   -1.5582    8.3562   12.8109 C   0  0  0  0  0  0  0  0  0  0  0  0
   -2.4287    9.6265   12.8779 C   0  0  0  0  0  0  0  0  0  0  0  0
   -1.6544   10.7923   13.1167 O   0  0  0  0  0  0  0  0  0  0  0  0
   -3.4910    9.4984   13.8149 O   0  0  0  0  0  0  0  0  0  0  0  0
   -2.3536    7.1780   12.6461 O   0  0  0  0  0  0  0  0  0  0  0  0
    0.2653    7.1785   13.9951 O   0  0  0  0  0  0  0  0  0  0  0  0
    0.7173    9.4300   15.6152 O   0  0  0  0  0  0  0  0  0  0  0  0
   -3.1286    9.2670   14.6870 H   0  0  0  0  0  0  0  0  0  0  0  0
   -3.2153    7.3415   13.0775 H   0  0  0  0  0  0  0  0  0  0  0  0
    0.3248    6.8860   13.0668 H   0  0  0  0  0  0  0  0  0  0  0  0
    1.0283    8.5015   15.6768 H   0  0  0  0  0  0  0  0  0  0  0  0
   -0.0670   12.0528   14.4243 C   0  0  0  0  0  0  0  0  0  0  0  0
   -0.6555   12.9888   15.3176 O   0  0  0  0  0  0  0  0  0  0  0  0
   -1.0177   12.4840   16.0778 H   0  0  0  0  0  0  0  0  0  0  0  0
 15  1  1  0
 15 16  1  0
  1  2  1  0
  1  6  1  0
  2  3  1  0
  2 10  1  0
  3  4  1  0
  3  9  1  0
  4  5  1  0
  4  8  1  0
  5  6  1  0
  5  7  1  0
  7 11  1  0
  8 12  1  0
  9 13  1  0
 10 14  1  0
 16 17  1  0
M  END
> <minimizedAffinity>
-3.96675

> <CNNscore>
0.8736044168

> <CNNaffinity>
2.7416257858

> <CNN_VS>
2.3950963020

> <CNNaffinity_variance>
0.3411796391

$$$$



 17 17  0  0  0  0  0  0  0  0999 V2000
   -3.5674    8.9301   13.2233 C   0  0  0  0  0  0  0  0  0  0  0  0
   -3.6852    8.9410   14.7566 C   0  0  0  0  0  0  0  0  0  0  0  0
   -5.1439    9.0709   15.2034 C   0  0  0  0  0  0  0  0  0  0  0  0
   -6.0191    8.0284   14.5027 C   0  0  0  0  0  0  0  0  0  0  0  0
   -5.7947    8.0834   12.9788 C   0  0  0  0  0  0  0  0  0  0  0  0
   -4.4236    7.9475   12.6359 O   0  0  0  0  0  0  0  0  0  0  0  0
   -6.3714    9.2448   12.3945 O   0  0  0  0  0  0  0  0  0  0  0  0
   -7.3924    8.2422   14.8432 O   0  0  0  0  0  0  0  0  0  0  0  0
   -5.1606    8.9439   16.6333 O   0  0  0  0  0  0  0  0  0  0  0  0
   -2.9317   10.0308   15.3111 O   0  0  0  0  0  0  0  0  0  0  0  0
   -6.0225   10.0377   12.8360 H   0  0  0  0  0  0  0  0  0  0  0  0
   -7.7782    8.8252   14.1600 H   0  0  0  0  0  0  0  0  0  0  0  0
   -5.5654    8.0866   16.8614 H   0  0  0  0  0  0  0  0  0  0  0  0
   -3.2958   10.1705   16.2114 H   0  0  0  0  0  0  0  0  0  0  0  0
   -2.1182    8.6382   12.7987 C   0  0  0  0  0  0  0  0  0  0  0  0
   -1.9008    7.2635   12.5107 O   0  0  0  0  0  0  0  0  0  0  0  0
   -2.7020    6.9272   12.0537 H   0  0  0  0  0  0  0  0  0  0  0  0
 15  1  1  0
 15 16  1  0
  1  2  1  0
  1  6  1  0
  2  3  1  0
  2 10  1  0
  3  4  1  0
  3  9  1  0
  4  5  1  0
  4  8  1  0
  5  6  1  0
  5  7  1  0
  7 11  1  0
  8 12  1  0
  9 13  1  0
 10 14  1  0
 16 17  1  0
M  END
> <minimizedAffinity>
-3.87712

> <CNNscore>
0.8308135867

> <CNNaffinity>
2.9561567307

> <CNN_VS>
2.4560151100

> <CNNaffinity_variance>
0.4316413403

$$$$



 17 17  0  0  0  0  0  0  0  0999 V2000
   -0.9613    9.2775   15.3416 C   0  0  0  0  0  0  0  0  0  0  0  0
   -0.7761    8.3970   14.0945 C   0  0  0  0  0  0  0  0  0  0  0  0
   -2.1220    8.0458   13.4543 C   0  0  0  0  0  0  0  0  0  0  0  0
   -2.9584    9.3076   13.2271 C   0  0  0  0  0  0  0  0  0  0  0  0
   -3.0479   10.1280   14.5289 C   0  0  0  0  0  0  0  0  0  0  0  0
   -1.7658   10.4256   15.0615 O   0  0  0  0  0  0  0  0  0  0  0  0
   -3.8890    9.5093   15.4946 O   0  0  0  0  0  0  0  0  0  0  0  0
   -4.2544    8.9474   12.7388 O   0  0  0  0  0  0  0  0  0  0  0  0
   -1.8392    7.3368   12.2384 O   0  0  0  0  0  0  0  0  0  0  0  0
   -0.0931    7.1802   14.4350 O   0  0  0  0  0  0  0  0  0  0  0  0
   -3.5779    8.6037   15.6634 H   0  0  0  0  0  0  0  0  0  0  0  0
   -4.8465    8.8594   13.5115 H   0  0  0  0  0  0  0  0  0  0  0  0
   -2.0637    7.9148   11.4858 H   0  0  0  0  0  0  0  0  0  0  0  0
   -0.2896    6.5555   13.7043 H   0  0  0  0  0  0  0  0  0  0  0  0
    0.4029    9.7493   15.8725 C   0  0  0  0  0  0  0  0  0  0  0  0
    1.0868    8.7350   16.5961 O   0  0  0  0  0  0  0  0  0  0  0  0
    0.9234    7.8830   16.1364 H   0  0  0  0  0  0  0  0  0  0  0  0
 15  1  1  0
 15 16  1  0
  1  2  1  0
  1  6  1  0
  2  3  1  0
  2 10  1  0
  3  4  1  0
  3  9  1  0
  4  5  1  0
  4  8  1  0
  5  6  1  0
  5  7  1  0
  7 11  1  0
  8 12  1  0
  9 13  1  0
 10 14  1  0
 16 17  1  0
M  END
> <minimizedAffinity>
-3.88892

> <CNNscore>
0.8262729645

> <CNNaffinity>
2.7829391956

> <CNN_VS>
2.2994673252

> <CNNaffinity_variance>
0.2181617767

$$$$



 17 17  0  0  0  0  0  0  0  0999 V2000
   -3.3936    9.0483   12.8830 C   0  0  0  0  0  0  0  0  0  0  0  0
   -3.2827   10.3510   13.6928 C   0  0  0  0  0  0  0  0  0  0  0  0
   -4.6609   10.9653   13.9533 C   0  0  0  0  0  0  0  0  0  0  0  0
   -5.6140    9.9239   14.5455 C   0  0  0  0  0  0  0  0  0  0  0  0
   -5.6191    8.6518   13.6752 C   0  0  0  0  0  0  0  0  0  0  0  0
   -4.3122    8.1315   13.4826 O   0  0  0  0  0  0  0  0  0  0  0  0
   -6.2941    8.8516   12.4394 O   0  0  0  0  0  0  0  0  0  0  0  0
   -6.9248   10.4840   14.6712 O   0  0  0  0  0  0  0  0  0  0  0  0
   -4.4632   12.0958   14.8158 O   0  0  0  0  0  0  0  0  0  0  0  0
   -2.4723   11.3096   12.9948 O   0  0  0  0  0  0  0  0  0  0  0  0
   -5.8959    9.6043   11.9699 H   0  0  0  0  0  0  0  0  0  0  0  0
   -7.4166   10.2693   13.8543 H   0  0  0  0  0  0  0  0  0  0  0  0
   -4.8163   11.8756   15.6977 H   0  0  0  0  0  0  0  0  0  0  0  0
   -2.7009   12.1803   13.3850 H   0  0  0  0  0  0  0  0  0  0  0  0
   -2.0191    8.3672   12.7720 C   0  0  0  0  0  0  0  0  0  0  0  0
   -2.0700    6.9821   13.0866 O   0  0  0  0  0  0  0  0  0  0  0  0
   -2.9081    6.6264   12.7192 H   0  0  0  0  0  0  0  0  0  0  0  0
 15  1  1  0
 15 16  1  0
  1  2  1  0
  1  6  1  0
  2  3  1  0
  2 10  1  0
  3  4  1  0
  3  9  1  0
  4  5  1  0
  4  8  1  0
  5  6  1  0
  5  7  1  0
  7 11  1  0
  8 12  1  0
  9 13  1  0
 10 14  1  0
 16 17  1  0
M  END
> <minimizedAffinity>
-3.65269

> <CNNscore>
0.8236846328

> <CNNaffinity>
2.8576533794

> <CNN_VS>
2.3538050652

> <CNNaffinity_variance>
0.2476826906

$$$$



 17 17  0  0  0  0  0  0  0  0999 V2000
   -1.5429    8.9600   14.0584 C   0  0  0  0  0  0  0  0  0  0  0  0
   -2.5401    8.2204   13.1509 C   0  0  0  0  0  0  0  0  0  0  0  0
   -3.9667    8.7402   13.3489 C   0  0  0  0  0  0  0  0  0  0  0  0
   -4.0072   10.2661   13.2327 C   0  0  0  0  0  0  0  0  0  0  0  0
   -2.9470   10.8982   14.1558 C   0  0  0  0  0  0  0  0  0  0  0  0
   -1.6486   10.3781   13.9119 O   0  0  0  0  0  0  0  0  0  0  0  0
   -3.3052   10.7988   15.5286 O   0  0  0  0  0  0  0  0  0  0  0  0
   -5.3230   10.7396   13.5366 O   0  0  0  0  0  0  0  0  0  0  0  0
   -4.7942    8.0839   12.3764 O   0  0  0  0  0  0  0  0  0  0  0  0
   -2.5184    6.8105   13.4239 O   0  0  0  0  0  0  0  0  0  0  0  0
   -3.4669    9.8672   15.7554 H   0  0  0  0  0  0  0  0  0  0  0  0
   -5.3480   10.9483   14.4911 H   0  0  0  0  0  0  0  0  0  0  0  0
   -5.0563    8.7388   11.7032 H   0  0  0  0  0  0  0  0  0  0  0  0
   -3.3625    6.4607   13.0663 H   0  0  0  0  0  0  0  0  0  0  0  0
   -0.1016    8.5364   13.7287 C   0  0  0  0  0  0  0  0  0  0  0  0
    0.1570    7.1787   14.0599 O   0  0  0  0  0  0  0  0  0  0  0  0
   -0.6482    6.6623   13.8388 H   0  0  0  0  0  0  0  0  0  0  0  0
 15  1  1  0
 15 16  1  0
  1  2  1  0
  1  6  1  0
  2  3  1  0
  2 10  1  0
  3  4  1  0
  3  9  1  0
  4  5  1  0
  4  8  1  0
  5  6  1  0
  5  7  1  0
  7 11  1  0
  8 12  1  0
  9 13  1  0
 10 14  1  0
 16 17  1  0
M  END
> <minimizedAffinity>
-3.96334

> <CNNscore>
0.8228971362

> <CNNaffinity>
2.7006304264

> <CNN_VS>
2.2223410606

> <CNNaffinity_variance>
0.3607660830

$$$$



 17 17  0  0  0  0  0  0  0  0999 V2000
   -4.0903    8.1714   14.0371 C   0  0  0  0  0  0  0  0  0  0  0  0
   -2.6015    8.2488   13.6597 C   0  0  0  0  0  0  0  0  0  0  0  0
   -2.2782    9.5548   12.9287 C   0  0  0  0  0  0  0  0  0  0  0  0
   -2.8013   10.7591   13.7159 C   0  0  0  0  0  0  0  0  0  0  0  0
   -4.2882   10.5583   14.0693 C   0  0  0  0  0  0  0  0  0  0  0  0
   -4.5139    9.3344   14.7525 O   0  0  0  0  0  0  0  0  0  0  0  0
   -5.1311   10.6897   12.9312 O   0  0  0  0  0  0  0  0  0  0  0  0
   -2.5941   11.9572   12.9615 O   0  0  0  0  0  0  0  0  0  0  0  0
   -0.8561    9.5895   12.7348 O   0  0  0  0  0  0  0  0  0  0  0  0
   -2.2381    7.1438   12.8172 O   0  0  0  0  0  0  0  0  0  0  0  0
   -4.8413   10.0710   12.2394 H   0  0  0  0  0  0  0  0  0  0  0  0
   -3.4039   12.1203   12.4389 H   0  0  0  0  0  0  0  0  0  0  0  0
   -0.4818   10.2711   13.3231 H   0  0  0  0  0  0  0  0  0  0  0  0
   -1.4087    7.4166   12.3696 H   0  0  0  0  0  0  0  0  0  0  0  0
   -4.3592    6.9321   14.9074 C   0  0  0  0  0  0  0  0  0  0  0  0
   -3.5891    6.9273   16.1020 O   0  0  0  0  0  0  0  0  0  0  0  0
   -3.5494    7.8513   16.4315 H   0  0  0  0  0  0  0  0  0  0  0  0
 15  1  1  0
 15 16  1  0
  1  2  1  0
  1  6  1  0
  2  3  1  0
  2 10  1  0
  3  4  1  0
  3  9  1  0
  4  5  1  0
  4  8  1  0
  5  6  1  0
  5  7  1  0
  7 11  1  0
  8 12  1  0
  9 13  1  0
 10 14  1  0
 16 17  1  0
M  END
> <minimizedAffinity>
-3.80736

> <CNNscore>
0.8184109926

> <CNNaffinity>
2.7718846798

> <CNN_VS>
2.2685408592

> <CNNaffinity_variance>
0.3534713686

$$$$



 17 17  0  0  0  0  0  0  0  0999 V2000
   -2.4090   10.2457   14.6744 C   0  0  0  0  0  0  0  0  0  0  0  0
   -2.7497    9.0100   13.8247 C   0  0  0  0  0  0  0  0  0  0  0  0
   -1.5132    8.4741   13.0980 C   0  0  0  0  0  0  0  0  0  0  0  0
   -0.3536    8.2759   14.0777 C   0  0  0  0  0  0  0  0  0  0  0  0
   -0.1245    9.5610   14.8975 C   0  0  0  0  0  0  0  0  0  0  0  0
   -1.3078    9.9952   15.5510 O   0  0  0  0  0  0  0  0  0  0  0  0
    0.4568   10.5975   14.1163 O   0  0  0  0  0  0  0  0  0  0  0  0
    0.8234    7.8882   13.3620 O   0  0  0  0  0  0  0  0  0  0  0  0
   -1.9030    7.2586   12.4410 O   0  0  0  0  0  0  0  0  0  0  0  0
   -3.7565    9.3307   12.8519 O   0  0  0  0  0  0  0  0  0  0  0  0
   -0.0978   10.7657   13.3356 H   0  0  0  0  0  0  0  0  0  0  0  0
    1.3212    8.7023   13.1504 H   0  0  0  0  0  0  0  0  0  0  0  0
   -1.4847    6.5100   12.9052 H   0  0  0  0  0  0  0  0  0  0  0  0
   -3.6927    8.6306   12.1674 H   0  0  0  0  0  0  0  0  0  0  0  0
   -3.6239   10.6684   15.5175 C   0  0  0  0  0  0  0  0  0  0  0  0
   -4.6396    9.6746   15.5469 O   0  0  0  0  0  0  0  0  0  0  0  0
   -4.1958    8.8001   15.5942 H   0  0  0  0  0  0  0  0  0  0  0  0
 15  1  1  0
 15 16  1  0
  1  2  1  0
  1  6  1  0
  2  3  1  0
  2 10  1  0
  3  4  1  0
  3  9  1  0
  4  5  1  0
  4  8  1  0
  5  6  1  0
  5  7  1  0
  7 11  1  0
  8 12  1  0
  9 13  1  0
 10 14  1  0
 16 17  1  0
M  END
> <minimizedAffinity>
-3.92233

> <CNNscore>
0.8092291355

> <CNNaffinity>
3.1106939316

> <CNN_VS>
2.5172641277

> <CNNaffinity_variance>
0.2497673780

$$$$



 17 17  0  0  0  0  0  0  0  0999 V2000
   -3.0854    8.1284   15.1554 C   0  0  0  0  0  0  0  0  0  0  0  0
   -2.8842    7.6053   13.7233 C   0  0  0  0  0  0  0  0  0  0  0  0
   -1.6195    8.1896   13.0882 C   0  0  0  0  0  0  0  0  0  0  0  0
   -0.4137    8.0016   14.0125 C   0  0  0  0  0  0  0  0  0  0  0  0
   -0.7390    8.5270   15.4246 C   0  0  0  0  0  0  0  0  0  0  0  0
   -1.9162    7.9373   15.9555 O   0  0  0  0  0  0  0  0  0  0  0  0
   -0.7959    9.9475   15.4669 O   0  0  0  0  0  0  0  0  0  0  0  0
    0.7300    8.6564   13.4549 O   0  0  0  0  0  0  0  0  0  0  0  0
   -1.4519    7.5491   11.8143 O   0  0  0  0  0  0  0  0  0  0  0  0
   -4.0134    7.9415   12.9018 O   0  0  0  0  0  0  0  0  0  0  0  0
   -1.4381   10.2664   14.8102 H   0  0  0  0  0  0  0  0  0  0  0  0
    0.7609    9.5609   13.8241 H   0  0  0  0  0  0  0  0  0  0  0  0
   -0.6863    6.9477   11.8706 H   0  0  0  0  0  0  0  0  0  0  0  0
   -3.6943    7.8736   11.9765 H   0  0  0  0  0  0  0  0  0  0  0  0
   -4.2663    7.4086   15.8284 C   0  0  0  0  0  0  0  0  0  0  0  0
   -4.4313    6.0767   15.3604 O   0  0  0  0  0  0  0  0  0  0  0  0
   -3.5356    5.6954   15.2330 H   0  0  0  0  0  0  0  0  0  0  0  0
 15  1  1  0
 15 16  1  0
  1  2  1  0
  1  6  1  0
  2  3  1  0
  2 10  1  0
  3  4  1  0
  3  9  1  0
  4  5  1  0
  4  8  1  0
  5  6  1  0
  5  7  1  0
  7 11  1  0
  8 12  1  0
  9 13  1  0
 10 14  1  0
 16 17  1  0
M  END
> <minimizedAffinity>
-4.46220

> <CNNscore>
0.7784405351

> <CNNaffinity>
2.7060439587

> <CNN_VS>
2.1064941883

> <CNNaffinity_variance>
0.3374526203

$$$$



 17 17  0  0  0  0  0  0  0  0999 V2000
   -3.2403    9.6797   13.7937 C   0  0  0  0  0  0  0  0  0  0  0  0
   -2.1919   10.0662   14.8503 C   0  0  0  0  0  0  0  0  0  0  0  0
   -1.2153    8.9168   15.1142 C   0  0  0  0  0  0  0  0  0  0  0  0
   -0.6338    8.3888   13.8002 C   0  0  0  0  0  0  0  0  0  0  0  0
   -1.7683    8.0680   12.8074 C   0  0  0  0  0  0  0  0  0  0  0  0
   -2.6285    9.1788   12.6027 O   0  0  0  0  0  0  0  0  0  0  0  0
   -2.4926    6.9024   13.1809 O   0  0  0  0  0  0  0  0  0  0  0  0
    0.1828    7.2423   14.0588 O   0  0  0  0  0  0  0  0  0  0  0  0
   -0.2097    9.4141   16.0101 O   0  0  0  0  0  0  0  0  0  0  0  0
   -2.8312   10.4243   16.0856 O   0  0  0  0  0  0  0  0  0  0  0  0
   -2.8293    7.0059   14.0872 H   0  0  0  0  0  0  0  0  0  0  0  0
   -0.3833    6.4507   13.9676 H   0  0  0  0  0  0  0  0  0  0  0  0
    0.6256    9.5047   15.5153 H   0  0  0  0  0  0  0  0  0  0  0  0
   -2.1361   10.3449   16.7736 H   0  0  0  0  0  0  0  0  0  0  0  0
   -4.1073   10.8964   13.4283 C   0  0  0  0  0  0  0  0  0  0  0  0
   -5.3372   10.5264   12.8196 O   0  0  0  0  0  0  0  0  0  0  0  0
   -5.6604    9.7185   13.2741 H   0  0  0  0  0  0  0  0  0  0  0  0
 15  1  1  0
 15 16  1  0
  1  2  1  0
  1  6  1  0
  2  3  1  0
  2 10  1  0
  3  4  1  0
  3  9  1  0
  4  5  1  0
  4  8  1  0
  5  6  1  0
  5  7  1  0
  7 11  1  0
  8 12  1  0
  9 13  1  0
 10 14  1  0
 16 17  1  0
M  END
> <minimizedAffinity>
-4.18650

> <CNNscore>
0.7757760286

> <CNNaffinity>
2.7754738331

> <CNN_VS>
2.1531460285

> <CNNaffinity_variance>
0.3183421791

$$$$



 17 17  0  0  0  0  0  0  0  0999 V2000
   -1.9664    9.0715   16.0447 C   0  0  0  0  0  0  0  0  0  0  0  0
   -0.6440    9.1230   15.2615 C   0  0  0  0  0  0  0  0  0  0  0  0
   -0.6331    8.1058   14.1171 C   0  0  0  0  0  0  0  0  0  0  0  0
   -1.8914    8.2465   13.2565 C   0  0  0  0  0  0  0  0  0  0  0  0
   -3.1500    8.2167   14.1458 C   0  0  0  0  0  0  0  0  0  0  0  0
   -3.0972    9.1900   15.1781 O   0  0  0  0  0  0  0  0  0  0  0  0
   -3.4113    6.9167   14.6600 O   0  0  0  0  0  0  0  0  0  0  0  0
   -1.9185    7.2133   12.2668 O   0  0  0  0  0  0  0  0  0  0  0  0
    0.5775    8.3177   13.3750 O   0  0  0  0  0  0  0  0  0  0  0  0
    0.4666    8.8538   16.1315 O   0  0  0  0  0  0  0  0  0  0  0  0
   -2.6285    6.5930   15.1374 H   0  0  0  0  0  0  0  0  0  0  0  0
   -2.4222    6.4625   12.6382 H   0  0  0  0  0  0  0  0  0  0  0  0
    0.3456    8.7126   12.5141 H   0  0  0  0  0  0  0  0  0  0  0  0
    1.2048    8.5903   15.5413 H   0  0  0  0  0  0  0  0  0  0  0  0
   -2.0197   10.2055   17.0824 C   0  0  0  0  0  0  0  0  0  0  0  0
   -1.9026   11.4923   16.4903 O   0  0  0  0  0  0  0  0  0  0  0  0
   -2.4029   11.4754   15.6458 H   0  0  0  0  0  0  0  0  0  0  0  0
 15  1  1  0
 15 16  1  0
  1  2  1  0
  1  6  1  0
  2  3  1  0
  2 10  1  0
  3  4  1  0
  3  9  1  0
  4  5  1  0
  4  8  1  0
  5  6  1  0
  5  7  1  0
  7 11  1  0
  8 12  1  0
  9 13  1  0
 10 14  1  0
 16 17  1  0
M  END
> <minimizedAffinity>
-3.94384

> <CNNscore>
0.7495641112

> <CNNaffinity>
2.7209179401

> <CNN_VS>
2.0395023823

> <CNNaffinity_variance>
0.2814869583

$$$$



 17 17  0  0  0  0  0  0  0  0999 V2000
   -1.4205   10.7118   13.0814 C   0  0  0  0  0  0  0  0  0  0  0  0
   -2.8001   10.6877   13.7605 C   0  0  0  0  0  0  0  0  0  0  0  0
   -3.4388    9.2985   13.6775 C   0  0  0  0  0  0  0  0  0  0  0  0
   -2.4650    8.2252   14.1706 C   0  0  0  0  0  0  0  0  0  0  0  0
   -1.1094    8.3657   13.4505 C   0  0  0  0  0  0  0  0  0  0  0  0
   -0.5713    9.6735   13.5760 O   0  0  0  0  0  0  0  0  0  0  0  0
   -1.1803    7.9532   12.0912 O   0  0  0  0  0  0  0  0  0  0  0  0
   -3.0358    6.9276   13.9751 O   0  0  0  0  0  0  0  0  0  0  0  0
   -4.6526    9.3453   14.4426 O   0  0  0  0  0  0  0  0  0  0  0  0
   -3.6807   11.6404   13.1442 O   0  0  0  0  0  0  0  0  0  0  0  0
   -1.8800    8.4523   11.6366 H   0  0  0  0  0  0  0  0  0  0  0  0
   -2.7377    6.6029   13.1027 H   0  0  0  0  0  0  0  0  0  0  0  0
   -4.5253    8.8199   15.2542 H   0  0  0  0  0  0  0  0  0  0  0  0
   -4.5873   11.3575   13.3905 H   0  0  0  0  0  0  0  0  0  0  0  0
   -0.7308   12.0663   13.3162 C   0  0  0  0  0  0  0  0  0  0  0  0
    0.3336   12.3015   12.4042 O   0  0  0  0  0  0  0  0  0  0  0  0
    0.0554   11.9534   11.5295 H   0  0  0  0  0  0  0  0  0  0  0  0
 15  1  1  0
 15 16  1  0
  1  2  1  0
  1  6  1  0
  2  3  1  0
  2 10  1  0
  3  4  1  0
  3  9  1  0
  4  5  1  0
  4  8  1  0
  5  6  1  0
  5  7  1  0
  7 11  1  0
  8 12  1  0
  9 13  1  0
 10 14  1  0
 16 17  1  0
M  END
> <minimizedAffinity>
-3.72045

> <CNNscore>
0.7253837585

> <CNNaffinity>
2.5979936123

> <CNN_VS>
1.8845423460

> <CNNaffinity_variance>
0.5093289614

$$$$



 17 17  0  0  0  0  0  0  0  0999 V2000
    2.7972    9.1356   14.9405 C   0  0  0  0  0  0  0  0  0  0  0  0
    1.3283    8.9970   14.5069 C   0  0  0  0  0  0  0  0  0  0  0  0
    0.9991    7.5573   14.1026 C   0  0  0  0  0  0  0  0  0  0  0  0
    1.4392    6.5757   15.1919 C   0  0  0  0  0  0  0  0  0  0  0  0
    2.9116    6.8278   15.5717 C   0  0  0  0  0  0  0  0  0  0  0  0
    3.1430    8.1781   15.9442 O   0  0  0  0  0  0  0  0  0  0  0  0
    3.8076    6.4012   14.5528 O   0  0  0  0  0  0  0  0  0  0  0  0
    1.2307    5.2323   14.7452 O   0  0  0  0  0  0  0  0  0  0  0  0
   -0.4113    7.5043   13.8399 O   0  0  0  0  0  0  0  0  0  0  0  0
    1.0472    9.8657   13.3981 O   0  0  0  0  0  0  0  0  0  0  0  0
    3.5755    6.8347   13.7140 H   0  0  0  0  0  0  0  0  0  0  0  0
    2.0605    4.9284   14.3275 H   0  0  0  0  0  0  0  0  0  0  0  0
   -0.8388    6.9977   14.5550 H   0  0  0  0  0  0  0  0  0  0  0  0
    0.2333    9.5072   12.9835 H   0  0  0  0  0  0  0  0  0  0  0  0
    3.0626   10.5463   15.4928 C   0  0  0  0  0  0  0  0  0  0  0  0
    2.9613   10.6053   16.9093 O   0  0  0  0  0  0  0  0  0  0  0  0
    3.3468    9.7765   17.2676 H   0  0  0  0  0  0  0  0  0  0  0  0
 15  1  1  0
 15 16  1  0
  1  2  1  0
  1  6  1  0
  2  3  1  0
  2 10  1  0
  3  4  1  0
  3  9  1  0
  4  5  1  0
  4  8  1  0
  5  6  1  0
  5  7  1  0
  7 11  1  0
  8 12  1  0
  9 13  1  0
 10 14  1  0
 16 17  1  0
M  END
> <minimizedAffinity>
-4.56355

> <CNNscore>
0.6910776496

> <CNNaffinity>
2.6106290817

> <CNN_VS>
1.8041473627

> <CNNaffinity_variance>
0.4520735741

$$$$
