


 17 17  0  0  0  0  0  0  0  0999 V2000
   18.0995    1.3979   -3.3156 C   0  0  0  0  0  0  0  0  0  0  0  0
   17.3323    0.2276   -3.9533 C   0  0  0  0  0  0  0  0  0  0  0  0
   16.6490    0.6521   -5.2562 C   0  0  0  0  0  0  0  0  0  0  0  0
   17.6455    1.3463   -6.1882 C   0  0  0  0  0  0  0  0  0  0  0  0
   18.3791    2.4746   -5.4369 C   0  0  0  0  0  0  0  0  0  0  0  0
   18.9963    2.0095   -4.2459 O   0  0  0  0  0  0  0  0  0  0  0  0
   17.5336    3.5915   -5.1908 O   0  0  0  0  0  0  0  0  0  0  0  0
   16.9631    1.8382   -7.3458 O   0  0  0  0  0  0  0  0  0  0  0  0
   16.0724   -0.5285   -5.8348 O   0  0  0  0  0  0  0  0  0  0  0  0
   16.3352   -0.2725   -3.0485 O   0  0  0  0  0  0  0  0  0  0  0  0
   16.7407    3.2987   -4.7101 H   0  0  0  0  0  0  0  0  0  0  0  0
   16.7002    2.7617   -7.1628 H   0  0  0  0  0  0  0  0  0  0  0  0
   16.5874   -0.7655   -6.6281 H   0  0  0  0  0  0  0  0  0  0  0  0
   15.6991   -0.7687   -3.6070 H   0  0  0  0  0  0  0  0  0  0  0  0
   18.9066    0.9113   -2.1001 C   0  0  0  0  0  0  0  0  0  0  0  0
   18.2529   -0.1357   -1.3954 O   0  0  0  0  0  0  0  0  0  0  0  0
   17.8269   -0.7185   -2.0608 H   0  0  0  0  0  0  0  0  0  0  0  0
 15  1  1  0
 15 16  1  0
  1  2  1  0
  1  6  1  0
  2  3  1  0
  2 10  1  0
  3  4  1  0
  3  9  1  0
  4  5  1  0
  4  8  1  0
  5  6  1  0
  5  7  1  0
  7 11  1  0
  8 12  1  0
  9 13  1  0
 10 14  1  0
 16 17  1  0
M  END
> <minimizedAffinity>
-4.75693

> <CNNscore>
0.9579855800

> <CNNaffinity>
2.8714332581

> <CNN_VS>
2.7507915497

> <CNNaffinity_variance>
0.5263609290

$$$$



 17 17  0  0  0  0  0  0  0  0999 V2000
   18.1554    1.2075   -5.2847 C   0  0  0  0  0  0  0  0  0  0  0  0
   16.9759    0.5473   -4.5513 C   0  0  0  0  0  0  0  0  0  0  0  0
   17.4454   -0.2048   -3.3029 C   0  0  0  0  0  0  0  0  0  0  0  0
   18.3200    0.6954   -2.4262 C   0  0  0  0  0  0  0  0  0  0  0  0
   19.4441    1.3289   -3.2693 C   0  0  0  0  0  0  0  0  0  0  0  0
   18.9377    2.0168   -4.4034 O   0  0  0  0  0  0  0  0  0  0  0  0
   20.4416    0.3812   -3.6297 O   0  0  0  0  0  0  0  0  0  0  0  0
   18.8432   -0.0593   -1.3287 O   0  0  0  0  0  0  0  0  0  0  0  0
   16.2699   -0.6729   -2.6247 O   0  0  0  0  0  0  0  0  0  0  0  0
   16.2961   -0.3735   -5.4189 O   0  0  0  0  0  0  0  0  0  0  0  0
   20.0267   -0.3670   -4.0917 H   0  0  0  0  0  0  0  0  0  0  0  0
   19.7144   -0.4094   -1.6004 H   0  0  0  0  0  0  0  0  0  0  0  0
   16.1602   -0.1549   -1.8058 H   0  0  0  0  0  0  0  0  0  0  0  0
   15.7905   -0.9691   -4.8253 H   0  0  0  0  0  0  0  0  0  0  0  0
   17.6449    2.0869   -6.4386 C   0  0  0  0  0  0  0  0  0  0  0  0
   17.0533    3.2959   -5.9822 O   0  0  0  0  0  0  0  0  0  0  0  0
   17.5842    3.6154   -5.2206 H   0  0  0  0  0  0  0  0  0  0  0  0
 15  1  1  0
 15 16  1  0
  1  2  1  0
  1  6  1  0
  2  3  1  0
  2 10  1  0
  3  4  1  0
  3  9  1  0
  4  5  1  0
  4  8  1  0
  5  6  1  0
  5  7  1  0
  7 11  1  0
  8 12  1  0
  9 13  1  0
 10 14  1  0
 16 17  1  0
M  END
> <minimizedAffinity>
-4.22428

> <CNNscore>
0.9513714314

> <CNNaffinity>
2.7539968491

> <CNN_VS>
2.6200740337

> <CNNaffinity_variance>
0.5687224865

$$$$



 17 17  0  0  0  0  0  0  0  0999 V2000
   18.0003    0.6008   -4.1026 C   0  0  0  0  0  0  0  0  0  0  0  0
   17.5048    0.1556   -2.7165 C   0  0  0  0  0  0  0  0  0  0  0  0
   18.6527   -0.3884   -1.8616 C   0  0  0  0  0  0  0  0  0  0  0  0
   19.8224    0.5990   -1.8353 C   0  0  0  0  0  0  0  0  0  0  0  0
   20.2107    1.0018   -3.2715 C   0  0  0  0  0  0  0  0  0  0  0  0
   19.1028    1.5054   -4.0027 O   0  0  0  0  0  0  0  0  0  0  0  0
   20.8640   -0.0540   -3.9652 O   0  0  0  0  0  0  0  0  0  0  0  0
   20.9265    0.0223   -1.1308 O   0  0  0  0  0  0  0  0  0  0  0  0
   18.1177   -0.6551   -0.5563 O   0  0  0  0  0  0  0  0  0  0  0  0
   16.4997   -0.8624   -2.8448 O   0  0  0  0  0  0  0  0  0  0  0  0
   20.3002   -0.8461   -3.9563 H   0  0  0  0  0  0  0  0  0  0  0  0
   21.4956   -0.4231   -1.7888 H   0  0  0  0  0  0  0  0  0  0  0  0
   18.4754    0.0067    0.0641 H   0  0  0  0  0  0  0  0  0  0  0  0
   16.4667   -1.3103   -1.9725 H   0  0  0  0  0  0  0  0  0  0  0  0
   16.8669    1.2892   -4.8817 C   0  0  0  0  0  0  0  0  0  0  0  0
   15.6555    1.3512   -4.1409 O   0  0  0  0  0  0  0  0  0  0  0  0
   15.8905    1.5346   -3.2054 H   0  0  0  0  0  0  0  0  0  0  0  0
 15  1  1  0
 15 16  1  0
  1  2  1  0
  1  6  1  0
  2  3  1  0
  2 10  1  0
  3  4  1  0
  3  9  1  0
  4  5  1  0
  4  8  1  0
  5  6  1  0
  5  7  1  0
  7 11  1  0
  8 12  1  0
  9 13  1  0
 10 14  1  0
 16 17  1  0
M  END
> <minimizedAffinity>
-4.16030

> <CNNscore>
0.9445891976

> <CNNaffinity>
2.7379283905

> <CNN_VS>
2.5862176418

> <CNNaffinity_variance>
0.5354532599

$$$$



 17 17  0  0  0  0  0  0  0  0999 V2000
   19.7972    1.3236   -1.7691 C   0  0  0  0  0  0  0  0  0  0  0  0
   19.1958    2.1953   -2.8843 C   0  0  0  0  0  0  0  0  0  0  0  0
   18.3357    1.3639   -3.8400 C   0  0  0  0  0  0  0  0  0  0  0  0
   17.3159    0.5283   -3.0619 C   0  0  0  0  0  0  0  0  0  0  0  0
   18.0223   -0.2744   -1.9517 C   0  0  0  0  0  0  0  0  0  0  0  0
   18.7928    0.5587   -1.0985 O   0  0  0  0  0  0  0  0  0  0  0  0
   18.7931   -1.3486   -2.4760 O   0  0  0  0  0  0  0  0  0  0  0  0
   16.6039   -0.3269   -3.9616 O   0  0  0  0  0  0  0  0  0  0  0  0
   17.7220    2.2788   -4.7604 O   0  0  0  0  0  0  0  0  0  0  0  0
   20.2368    2.8376   -3.6371 O   0  0  0  0  0  0  0  0  0  0  0  0
   19.4277   -1.0050   -3.1276 H   0  0  0  0  0  0  0  0  0  0  0  0
   17.0767   -1.1818   -3.9919 H   0  0  0  0  0  0  0  0  0  0  0  0
   16.7700    2.3293   -4.5556 H   0  0  0  0  0  0  0  0  0  0  0  0
   19.8228    3.0988   -4.4875 H   0  0  0  0  0  0  0  0  0  0  0  0
   20.5215    2.2011   -0.7342 C   0  0  0  0  0  0  0  0  0  0  0  0
   21.7796    2.6693   -1.2014 O   0  0  0  0  0  0  0  0  0  0  0  0
   21.6792    2.8852   -2.1538 H   0  0  0  0  0  0  0  0  0  0  0  0
 15  1  1  0
 15 16  1  0
  1  2  1  0
  1  6  1  0
  2  3  1  0
  2 10  1  0
  3  4  1  0
  3  9  1  0
  4  5  1  0
  4  8  1  0
  5  6  1  0
  5  7  1  0
  7 11  1  0
  8 12  1  0
  9 13  1  0
 10 14  1  0
 16 17  1  0
M  END
> <minimizedAffinity>
-3.28286

> <CNNscore>
0.9345881939

> <CNNaffinity>
2.6966705322

> <CNN_VS>
2.5202765465

> <CNNaffinity_variance>
0.4441280663

$$$$



 17 17  0  0  0  0  0  0  0  0999 V2000
   19.3796    2.0973   -3.5077 C   0  0  0  0  0  0  0  0  0  0  0  0
   18.0644    2.1476   -4.3032 C   0  0  0  0  0  0  0  0  0  0  0  0
   17.3210    0.8107   -4.2378 C   0  0  0  0  0  0  0  0  0  0  0  0
   17.1728    0.3447   -2.7871 C   0  0  0  0  0  0  0  0  0  0  0  0
   18.5417    0.3670   -2.0789 C   0  0  0  0  0  0  0  0  0  0  0  0
   19.1695    1.6371   -2.1706 O   0  0  0  0  0  0  0  0  0  0  0  0
   19.3954   -0.6767   -2.5315 O   0  0  0  0  0  0  0  0  0  0  0  0
   16.5822   -0.9584   -2.7556 O   0  0  0  0  0  0  0  0  0  0  0  0
   16.0589    0.9965   -4.8963 O   0  0  0  0  0  0  0  0  0  0  0  0
   18.3212    2.4685   -5.6795 O   0  0  0  0  0  0  0  0  0  0  0  0
   19.4917   -0.6215   -3.4974 H   0  0  0  0  0  0  0  0  0  0  0  0
   17.3093   -1.6115   -2.7474 H   0  0  0  0  0  0  0  0  0  0  0  0
   15.3551    0.9862   -4.2214 H   0  0  0  0  0  0  0  0  0  0  0  0
   17.5235    2.1763   -6.1704 H   0  0  0  0  0  0  0  0  0  0  0  0
   20.0272    3.4913   -3.4532 C   0  0  0  0  0  0  0  0  0  0  0  0
   20.6902    3.7366   -2.2202 O   0  0  0  0  0  0  0  0  0  0  0  0
   21.1261    2.9001   -1.9478 H   0  0  0  0  0  0  0  0  0  0  0  0
 15  1  1  0
 15 16  1  0
  1  2  1  0
  1  6  1  0
  2  3  1  0
  2 10  1  0
  3  4  1  0
  3  9  1  0
  4  5  1  0
  4  8  1  0
  5  6  1  0
  5  7  1  0
  7 11  1  0
  8 12  1  0
  9 13  1  0
 10 14  1  0
 16 17  1  0
M  END
> <minimizedAffinity>
-3.84296

> <CNNscore>
0.9269798994

> <CNNaffinity>
2.6896879673

> <CNN_VS>
2.4932866096

> <CNNaffinity_variance>
0.4464134276

$$$$



 17 17  0  0  0  0  0  0  0  0999 V2000
   18.2475    1.4374   -4.5849 C   0  0  0  0  0  0  0  0  0  0  0  0
   17.4917    0.7820   -3.4169 C   0  0  0  0  0  0  0  0  0  0  0  0
   18.3871   -0.1961   -2.6514 C   0  0  0  0  0  0  0  0  0  0  0  0
   19.7089    0.4714   -2.2628 C   0  0  0  0  0  0  0  0  0  0  0  0
   20.3593    1.1228   -3.4991 C   0  0  0  0  0  0  0  0  0  0  0  0
   19.4782    2.0233   -4.1537 O   0  0  0  0  0  0  0  0  0  0  0  0
   20.8876    0.1555   -4.3980 O   0  0  0  0  0  0  0  0  0  0  0  0
   20.5760   -0.4906   -1.6541 O   0  0  0  0  0  0  0  0  0  0  0  0
   17.6379   -0.6544   -1.5157 O   0  0  0  0  0  0  0  0  0  0  0  0
   16.3379    0.0748   -3.8982 O   0  0  0  0  0  0  0  0  0  0  0  0
   20.1872   -0.4699   -4.6504 H   0  0  0  0  0  0  0  0  0  0  0  0
   21.1341   -0.8725   -2.3598 H   0  0  0  0  0  0  0  0  0  0  0  0
   18.0272   -0.2630   -0.7119 H   0  0  0  0  0  0  0  0  0  0  0  0
   16.1013   -0.5572   -3.1860 H   0  0  0  0  0  0  0  0  0  0  0  0
   17.3834    2.5297   -5.2373 C   0  0  0  0  0  0  0  0  0  0  0  0
   17.9643    3.8223   -5.1279 O   0  0  0  0  0  0  0  0  0  0  0  0
   18.9335    3.7216   -5.2482 H   0  0  0  0  0  0  0  0  0  0  0  0
 15  1  1  0
 15 16  1  0
  1  2  1  0
  1  6  1  0
  2  3  1  0
  2 10  1  0
  3  4  1  0
  3  9  1  0
  4  5  1  0
  4  8  1  0
  5  6  1  0
  5  7  1  0
  7 11  1  0
  8 12  1  0
  9 13  1  0
 10 14  1  0
 16 17  1  0
M  END
> <minimizedAffinity>
-3.80337

> <CNNscore>
0.9252443314

> <CNNaffinity>
2.7130768299

> <CNN_VS>
2.5102589130

> <CNNaffinity_variance>
0.4379452169

$$$$



 17 17  0  0  0  0  0  0  0  0999 V2000
   18.9253    1.8377   -5.0774 C   0  0  0  0  0  0  0  0  0  0  0  0
   17.6501    1.2625   -5.7160 C   0  0  0  0  0  0  0  0  0  0  0  0
   17.1144    0.0710   -4.9174 C   0  0  0  0  0  0  0  0  0  0  0  0
   16.9808    0.4296   -3.4351 C   0  0  0  0  0  0  0  0  0  0  0  0
   18.3017    1.0271   -2.9114 C   0  0  0  0  0  0  0  0  0  0  0  0
   18.7342    2.1317   -3.6914 O   0  0  0  0  0  0  0  0  0  0  0  0
   19.3199    0.0427   -2.7816 O   0  0  0  0  0  0  0  0  0  0  0  0
   16.5923   -0.7288   -2.6902 O   0  0  0  0  0  0  0  0  0  0  0  0
   15.8657   -0.3106   -5.5143 O   0  0  0  0  0  0  0  0  0  0  0  0
   17.9098    0.8383   -7.0634 O   0  0  0  0  0  0  0  0  0  0  0  0
   19.4450   -0.4093   -3.6333 H   0  0  0  0  0  0  0  0  0  0  0  0
   17.4086   -1.1616   -2.3713 H   0  0  0  0  0  0  0  0  0  0  0  0
   15.1454   -0.0656   -4.9043 H   0  0  0  0  0  0  0  0  0  0  0  0
   17.1852    0.2156   -7.2869 H   0  0  0  0  0  0  0  0  0  0  0  0
   19.3529    3.1261   -5.8002 C   0  0  0  0  0  0  0  0  0  0  0  0
   18.2858    3.7260   -6.5224 O   0  0  0  0  0  0  0  0  0  0  0  0
   17.4710    3.6239   -5.9844 H   0  0  0  0  0  0  0  0  0  0  0  0
 15  1  1  0
 15 16  1  0
  1  2  1  0
  1  6  1  0
  2  3  1  0
  2 10  1  0
  3  4  1  0
  3  9  1  0
  4  5  1  0
  4  8  1  0
  5  6  1  0
  5  7  1  0
  7 11  1  0
  8 12  1  0
  9 13  1  0
 10 14  1  0
 16 17  1  0
M  END
> <minimizedAffinity>
-3.98446

> <CNNscore>
0.9173600674

> <CNNaffinity>
2.7676823139

> <CNN_VS>
2.5389611721

> <CNNaffinity_variance>
0.4421439171

$$$$



 17 17  0  0  0  0  0  0  0  0999 V2000
   18.9491    1.0261   -2.6324 C   0  0  0  0  0  0  0  0  0  0  0  0
   18.6411    0.2513   -1.3402 C   0  0  0  0  0  0  0  0  0  0  0  0
   19.8249    0.2911   -0.3699 C   0  0  0  0  0  0  0  0  0  0  0  0
   20.2993    1.7306   -0.1542 C   0  0  0  0  0  0  0  0  0  0  0  0
   20.5428    2.4193   -1.5115 C   0  0  0  0  0  0  0  0  0  0  0  0
   19.4033    2.3531   -2.3558 O   0  0  0  0  0  0  0  0  0  0  0  0
   21.7086    1.9263   -2.1601 O   0  0  0  0  0  0  0  0  0  0  0  0
   21.4760    1.7353    0.6600 O   0  0  0  0  0  0  0  0  0  0  0  0
   19.3972   -0.3437    0.8446 O   0  0  0  0  0  0  0  0  0  0  0  0
   18.3312   -1.1193   -1.6373 O   0  0  0  0  0  0  0  0  0  0  0  0
   21.6432    0.9609   -2.2558 H   0  0  0  0  0  0  0  0  0  0  0  0
   22.2486    1.7153    0.0616 H   0  0  0  0  0  0  0  0  0  0  0  0
   19.3012    0.3408    1.5325 H   0  0  0  0  0  0  0  0  0  0  0  0
   18.4615   -1.6064   -0.7956 H   0  0  0  0  0  0  0  0  0  0  0  0
   17.6956    1.1090   -3.5197 C   0  0  0  0  0  0  0  0  0  0  0  0
   17.4682   -0.0857   -4.2552 O   0  0  0  0  0  0  0  0  0  0  0  0
   17.6977   -0.8405   -3.6708 H   0  0  0  0  0  0  0  0  0  0  0  0
 15  1  1  0
 15 16  1  0
  1  2  1  0
  1  6  1  0
  2  3  1  0
  2 10  1  0
  3  4  1  0
  3  9  1  0
  4  5  1  0
  4  8  1  0
  5  6  1  0
  5  7  1  0
  7 11  1  0
  8 12  1  0
  9 13  1  0
 10 14  1  0
 16 17  1  0
M  END
> <minimizedAffinity>
-2.99850

> <CNNscore>
0.9121364951

> <CNNaffinity>
2.6856832504

> <CNN_VS>
2.4497096539

> <CNNaffinity_variance>
0.3866928518

$$$$



 17 17  0  0  0  0  0  0  0  0999 V2000
   18.5638    2.2098   -4.8342 C   0  0  0  0  0  0  0  0  0  0  0  0
   19.2417    1.8518   -3.5011 C   0  0  0  0  0  0  0  0  0  0  0  0
   18.2803    1.1117   -2.5670 C   0  0  0  0  0  0  0  0  0  0  0  0
   17.6268   -0.0695   -3.2891 C   0  0  0  0  0  0  0  0  0  0  0  0
   17.0126    0.3968   -4.6237 C   0  0  0  0  0  0  0  0  0  0  0  0
   17.9602    1.0655   -5.4426 O   0  0  0  0  0  0  0  0  0  0  0  0
   15.8400    1.1777   -4.4291 O   0  0  0  0  0  0  0  0  0  0  0  0
   16.6475   -0.6744   -2.4389 O   0  0  0  0  0  0  0  0  0  0  0  0
   19.0357    0.7122   -1.4134 O   0  0  0  0  0  0  0  0  0  0  0  0
   19.7090    3.0381   -2.8400 O   0  0  0  0  0  0  0  0  0  0  0  0
   16.0435    1.9297   -3.8473 H   0  0  0  0  0  0  0  0  0  0  0  0
   15.7869   -0.2547   -2.6355 H   0  0  0  0  0  0  0  0  0  0  0  0
   19.1502   -0.2558   -1.4405 H   0  0  0  0  0  0  0  0  0  0  0  0
   19.8277    2.7851   -1.8994 H   0  0  0  0  0  0  0  0  0  0  0  0
   19.5886    2.8059   -5.8139 C   0  0  0  0  0  0  0  0  0  0  0  0
   19.0391    3.0366   -7.1043 O   0  0  0  0  0  0  0  0  0  0  0  0
   18.1208    3.3610   -6.9805 H   0  0  0  0  0  0  0  0  0  0  0  0
 15  1  1  0
 15 16  1  0
  1  2  1  0
  1  6  1  0
  2  3  1  0
  2 10  1  0
  3  4  1  0
  3  9  1  0
  4  5  1  0
  4  8  1  0
  5  6  1  0
  5  7  1  0
  7 11  1  0
  8 12  1  0
  9 13  1  0
 10 14  1  0
 16 17  1  0
M  END
> <minimizedAffinity>
-4.00512

> <CNNscore>
0.8900340796

> <CNNaffinity>
2.6953113079

> <CNN_VS>
2.3989188671

> <CNNaffinity_variance>
0.5022454858

$$$$



 17 17  0  0  0  0  0  0  0  0999 V2000
   18.0799    1.0354   -3.4205 C   0  0  0  0  0  0  0  0  0  0  0  0
   17.1149    0.9602   -4.6155 C   0  0  0  0  0  0  0  0  0  0  0  0
   17.5710    1.8701   -5.7594 C   0  0  0  0  0  0  0  0  0  0  0  0
   19.0391    1.6084   -6.1061 C   0  0  0  0  0  0  0  0  0  0  0  0
   19.9059    1.6737   -4.8332 C   0  0  0  0  0  0  0  0  0  0  0  0
   19.4323    0.7998   -3.8195 O   0  0  0  0  0  0  0  0  0  0  0  0
   20.0541    3.0048   -4.3545 O   0  0  0  0  0  0  0  0  0  0  0  0
   19.4776    2.5468   -7.0934 O   0  0  0  0  0  0  0  0  0  0  0  0
   16.6858    1.6349   -6.8649 O   0  0  0  0  0  0  0  0  0  0  0  0
   15.7899    1.3454   -4.2170 O   0  0  0  0  0  0  0  0  0  0  0  0
   19.1764    3.3974   -4.2098 H   0  0  0  0  0  0  0  0  0  0  0  0
   19.8669    3.3098   -6.6225 H   0  0  0  0  0  0  0  0  0  0  0  0
   17.1783    1.1563   -7.5572 H   0  0  0  0  0  0  0  0  0  0  0  0
   15.3237    1.5805   -5.0477 H   0  0  0  0  0  0  0  0  0  0  0  0
   17.6931   -0.0018   -2.3527 C   0  0  0  0  0  0  0  0  0  0  0  0
   16.5560   -0.7691   -2.7246 O   0  0  0  0  0  0  0  0  0  0  0  0
   16.6222   -0.9476   -3.6877 H   0  0  0  0  0  0  0  0  0  0  0  0
 15  1  1  0
 15 16  1  0
  1  2  1  0
  1  6  1  0
  2  3  1  0
  2 10  1  0
  3  4  1  0
  3  9  1  0
  4  5  1  0
  4  8  1  0
  5  6  1  0
  5  7  1  0
  7 11  1  0
  8 12  1  0
  9 13  1  0
 10 14  1  0
 16 17  1  0
M  END
> <minimizedAffinity>
-3.90235

> <CNNscore>
0.8870457411

> <CNNaffinity>
2.6600828171

> <CNN_VS>
2.3596150875

> <CNNaffinity_variance>
0.4515062869

$$$$



 17 17  0  0  0  0  0  0  0  0999 V2000
   19.9071    0.7592   -3.2253 C   0  0  0  0  0  0  0  0  0  0  0  0
   18.8684   -0.2110   -2.6382 C   0  0  0  0  0  0  0  0  0  0  0  0
   17.4400    0.2550   -2.9332 C   0  0  0  0  0  0  0  0  0  0  0  0
   17.2654    0.5524   -4.4248 C   0  0  0  0  0  0  0  0  0  0  0  0
   18.3769    1.5030   -4.9113 C   0  0  0  0  0  0  0  0  0  0  0  0
   19.6729    1.0053   -4.6139 O   0  0  0  0  0  0  0  0  0  0  0  0
   18.1975    2.8282   -4.4272 O   0  0  0  0  0  0  0  0  0  0  0  0
   15.9631    1.0970   -4.6602 O   0  0  0  0  0  0  0  0  0  0  0  0
   16.5547   -0.7718   -2.4611 O   0  0  0  0  0  0  0  0  0  0  0  0
   19.0344   -0.3253   -1.2162 O   0  0  0  0  0  0  0  0  0  0  0  0
   18.1386    2.8142   -3.4567 H   0  0  0  0  0  0  0  0  0  0  0  0
   16.0381    2.0705   -4.6147 H   0  0  0  0  0  0  0  0  0  0  0  0
   16.1617   -1.2185   -3.2337 H   0  0  0  0  0  0  0  0  0  0  0  0
   18.1832   -0.6794   -0.8801 H   0  0  0  0  0  0  0  0  0  0  0  0
   21.3265    0.1910   -3.0579 C   0  0  0  0  0  0  0  0  0  0  0  0
   21.3328   -1.2209   -2.8946 O   0  0  0  0  0  0  0  0  0  0  0  0
   20.6428   -1.5899   -3.4876 H   0  0  0  0  0  0  0  0  0  0  0  0
 15  1  1  0
 15 16  1  0
  1  2  1  0
  1  6  1  0
  2  3  1  0
  2 10  1  0
  3  4  1  0
  3  9  1  0
  4  5  1  0
  4  8  1  0
  5  6  1  0
  5  7  1  0
  7 11  1  0
  8 12  1  0
  9 13  1  0
 10 14  1  0
 16 17  1  0
M  END
> <minimizedAffinity>
-3.97281

> <CNNscore>
0.8764749169

> <CNNaffinity>
2.7317020893

> <CNN_VS>
2.3942682743

> <CNNaffinity_variance>
0.3959952295

$$$$



 17 17  0  0  0  0  0  0  0  0999 V2000
   18.2463    2.2263   -6.3341 C   0  0  0  0  0  0  0  0  0  0  0  0
   17.1952    1.1882   -6.7614 C   0  0  0  0  0  0  0  0  0  0  0  0
   16.9174    0.1817   -5.6415 C   0  0  0  0  0  0  0  0  0  0  0  0
   16.6042    0.9054   -4.3293 C   0  0  0  0  0  0  0  0  0  0  0  0
   17.7013    1.9426   -4.0189 C   0  0  0  0  0  0  0  0  0  0  0  0
   17.8994    2.8481   -5.0944 O   0  0  0  0  0  0  0  0  0  0  0  0
   18.9193    1.3288   -3.6157 O   0  0  0  0  0  0  0  0  0  0  0  0
   16.4641   -0.0488   -3.2721 O   0  0  0  0  0  0  0  0  0  0  0  0
   15.8419   -0.6589   -6.0861 O   0  0  0  0  0  0  0  0  0  0  0  0
   17.6379    0.4747   -7.9266 O   0  0  0  0  0  0  0  0  0  0  0  0
   19.2063    0.6981   -4.2977 H   0  0  0  0  0  0  0  0  0  0  0  0
   17.3392   -0.1499   -2.8485 H   0  0  0  0  0  0  0  0  0  0  0  0
   15.0455   -0.4397   -5.5678 H   0  0  0  0  0  0  0  0  0  0  0  0
   17.1042   -0.3483   -7.9490 H   0  0  0  0  0  0  0  0  0  0  0  0
   18.3908    3.3169   -7.4090 C   0  0  0  0  0  0  0  0  0  0  0  0
   17.6558    4.4922   -7.0955 O   0  0  0  0  0  0  0  0  0  0  0  0
   17.7323    4.6391   -6.1278 H   0  0  0  0  0  0  0  0  0  0  0  0
 15  1  1  0
 15 16  1  0
  1  2  1  0
  1  6  1  0
  2  3  1  0
  2 10  1  0
  3  4  1  0
  3  9  1  0
  4  5  1  0
  4  8  1  0
  5  6  1  0
  5  7  1  0
  7 11  1  0
  8 12  1  0
  9 13  1  0
 10 14  1  0
 16 17  1  0
M  END
> <minimizedAffinity>
-4.21793

> <CNNscore>
0.8071075678

> <CNNaffinity>
2.7725353241

> <CNN_VS>
2.2377343178

> <CNNaffinity_variance>
0.4659329355

$$$$



 17 17  0  0  0  0  0  0  0  0999 V2000
   19.1807    0.6518   -2.2168 C   0  0  0  0  0  0  0  0  0  0  0  0
   19.9853    1.6448   -1.3615 C   0  0  0  0  0  0  0  0  0  0  0  0
   20.6745    2.6999   -2.2312 C   0  0  0  0  0  0  0  0  0  0  0  0
   19.6730    3.3480   -3.1907 C   0  0  0  0  0  0  0  0  0  0  0  0
   18.9017    2.2628   -3.9673 C   0  0  0  0  0  0  0  0  0  0  0  0
   18.2810    1.3253   -3.1003 O   0  0  0  0  0  0  0  0  0  0  0  0
   19.7157    1.6212   -4.9412 O   0  0  0  0  0  0  0  0  0  0  0  0
   20.3577    4.2435   -4.0723 O   0  0  0  0  0  0  0  0  0  0  0  0
   21.2879    3.6453   -1.3419 O   0  0  0  0  0  0  0  0  0  0  0  0
   20.9828    0.9538   -0.5932 O   0  0  0  0  0  0  0  0  0  0  0  0
   20.5094    1.2581   -4.5127 H   0  0  0  0  0  0  0  0  0  0  0  0
   20.5950    3.7412   -4.8765 H   0  0  0  0  0  0  0  0  0  0  0  0
   20.7892    4.4819   -1.3904 H   0  0  0  0  0  0  0  0  0  0  0  0
   21.6382    1.6379   -0.3381 H   0  0  0  0  0  0  0  0  0  0  0  0
   18.3705   -0.2970   -1.3174 C   0  0  0  0  0  0  0  0  0  0  0  0
   17.1772   -0.7526   -1.9407 O   0  0  0  0  0  0  0  0  0  0  0  0
   17.3801   -0.9086   -2.8886 H   0  0  0  0  0  0  0  0  0  0  0  0
 15  1  1  0
 15 16  1  0
  1  2  1  0
  1  6  1  0
  2  3  1  0
  2 10  1  0
  3  4  1  0
  3  9  1  0
  4  5  1  0
  4  8  1  0
  5  6  1  0
  5  7  1  0
  7 11  1  0
  8 12  1  0
  9 13  1  0
 10 14  1  0
 16 17  1  0
M  END
> <minimizedAffinity>
-2.90926

> <CNNscore>
0.7787910700

> <CNNaffinity>
2.5531136990

> <CNN_VS>
1.9883421659

> <CNNaffinity_variance>
0.4881855547

$$$$



 17 17  0  0  0  0  0  0  0  0999 V2000
   20.0825    0.3634   -0.0447 C   0  0  0  0  0  0  0  0  0  0  0  0
   19.9534    1.6773   -0.8333 C   0  0  0  0  0  0  0  0  0  0  0  0
   19.6049    1.4154   -2.3011 C   0  0  0  0  0  0  0  0  0  0  0  0
   18.3963    0.4822   -2.4118 C   0  0  0  0  0  0  0  0  0  0  0  0
   18.6197   -0.7810   -1.5574 C   0  0  0  0  0  0  0  0  0  0  0  0
   18.9289   -0.4650   -0.2082 O   0  0  0  0  0  0  0  0  0  0  0  0
   19.5887   -1.6502   -2.1304 O   0  0  0  0  0  0  0  0  0  0  0  0
   18.1606    0.1569   -3.7853 O   0  0  0  0  0  0  0  0  0  0  0  0
   19.3821    2.6930   -2.9169 O   0  0  0  0  0  0  0  0  0  0  0  0
   21.1800    2.4221   -0.7739 O   0  0  0  0  0  0  0  0  0  0  0  0
   20.4183   -1.1631   -2.2721 H   0  0  0  0  0  0  0  0  0  0  0  0
   18.6442   -0.6700   -3.9795 H   0  0  0  0  0  0  0  0  0  0  0  0
   18.4291    2.7832   -3.1026 H   0  0  0  0  0  0  0  0  0  0  0  0
   21.1415    3.0518   -1.5254 H   0  0  0  0  0  0  0  0  0  0  0  0
   20.2726    0.6536    1.4536 C   0  0  0  0  0  0  0  0  0  0  0  0
   19.8670    1.9684    1.8101 O   0  0  0  0  0  0  0  0  0  0  0  0
   19.0604    2.1793    1.2916 H   0  0  0  0  0  0  0  0  0  0  0  0
 15  1  1  0
 15 16  1  0
  1  2  1  0
  1  6  1  0
  2  3  1  0
  2 10  1  0
  3  4  1  0
  3  9  1  0
  4  5  1  0
  4  8  1  0
  5  6  1  0
  5  7  1  0
  7 11  1  0
  8 12  1  0
  9 13  1  0
 10 14  1  0
 16 17  1  0
M  END
> <minimizedAffinity>
-3.22737

> <CNNscore>
0.7638003230

> <CNNaffinity>
2.5537364483

> <CNN_VS>
1.9505447149

> <CNNaffinity_variance>
0.4742335379

$$$$



 17 17  0  0  0  0  0  0  0  0999 V2000
   18.4781    1.9123   -5.2159 C   0  0  0  0  0  0  0  0  0  0  0  0
   18.4610    1.4742   -3.7418 C   0  0  0  0  0  0  0  0  0  0  0  0
   19.6984    1.9798   -2.9950 C   0  0  0  0  0  0  0  0  0  0  0  0
   19.8846    3.4837   -3.2126 C   0  0  0  0  0  0  0  0  0  0  0  0
   19.8504    3.8114   -4.7184 C   0  0  0  0  0  0  0  0  0  0  0  0
   18.6736    3.3226   -5.3444 O   0  0  0  0  0  0  0  0  0  0  0  0
   21.0253    3.3718   -5.3885 O   0  0  0  0  0  0  0  0  0  0  0  0
   21.1074    3.9126   -2.6056 O   0  0  0  0  0  0  0  0  0  0  0  0
   19.5286    1.6325   -1.6124 O   0  0  0  0  0  0  0  0  0  0  0  0
   18.4130    0.0421   -3.6433 O   0  0  0  0  0  0  0  0  0  0  0  0
   21.1512    2.4203   -5.2325 H   0  0  0  0  0  0  0  0  0  0  0  0
   21.8068    3.8661   -3.2869 H   0  0  0  0  0  0  0  0  0  0  0  0
   19.3599    2.4499   -1.1082 H   0  0  0  0  0  0  0  0  0  0  0  0
   18.7206   -0.1691   -2.7359 H   0  0  0  0  0  0  0  0  0  0  0  0
   17.1554    1.5333   -5.9033 C   0  0  0  0  0  0  0  0  0  0  0  0
   17.2883    0.4044   -6.7565 O   0  0  0  0  0  0  0  0  0  0  0  0
   17.8981   -0.2275   -6.3175 H   0  0  0  0  0  0  0  0  0  0  0  0
 15  1  1  0
 15 16  1  0
  1  2  1  0
  1  6  1  0
  2  3  1  0
  2 10  1  0
  3  4  1  0
  3  9  1  0
  4  5  1  0
  4  8  1  0
  5  6  1  0
  5  7  1  0
  7 11  1  0
  8 12  1  0
  9 13  1  0
 10 14  1  0
 16 17  1  0
M  END
> <minimizedAffinity>
-2.65691

> <CNNscore>
0.7479098439

> <CNNaffinity>
2.6232578754

> <CNN_VS>
1.9619604349

> <CNNaffinity_variance>
0.3360582292

$$$$



 17 17  0  0  0  0  0  0  0  0999 V2000
   18.1859    0.2985   -3.4124 C   0  0  0  0  0  0  0  0  0  0  0  0
   19.2314    1.1411   -4.1619 C   0  0  0  0  0  0  0  0  0  0  0  0
   18.8426    1.3366   -5.6299 C   0  0  0  0  0  0  0  0  0  0  0  0
   17.4054    1.8515   -5.7447 C   0  0  0  0  0  0  0  0  0  0  0  0
   16.4526    0.9551   -4.9296 C   0  0  0  0  0  0  0  0  0  0  0  0
   16.8673    0.8255   -3.5780 O   0  0  0  0  0  0  0  0  0  0  0  0
   16.2540   -0.3123   -5.5438 O   0  0  0  0  0  0  0  0  0  0  0  0
   17.0229    1.9150   -7.1222 O   0  0  0  0  0  0  0  0  0  0  0  0
   19.8046    2.2330   -6.2061 O   0  0  0  0  0  0  0  0  0  0  0  0
   20.5207    0.5108   -4.1038 O   0  0  0  0  0  0  0  0  0  0  0  0
   17.1143   -0.7422   -5.6867 H   0  0  0  0  0  0  0  0  0  0  0  0
   16.5921    1.0671   -7.3479 H   0  0  0  0  0  0  0  0  0  0  0  0
   19.3672    3.0886   -6.3721 H   0  0  0  0  0  0  0  0  0  0  0  0
   21.0395    0.9061   -4.8369 H   0  0  0  0  0  0  0  0  0  0  0  0
   18.5125    0.2507   -1.9102 C   0  0  0  0  0  0  0  0  0  0  0  0
   17.7815   -0.7575   -1.2251 O   0  0  0  0  0  0  0  0  0  0  0  0
   17.7300   -1.5389   -1.8172 H   0  0  0  0  0  0  0  0  0  0  0  0
 15  1  1  0
 15 16  1  0
  1  2  1  0
  1  6  1  0
  2  3  1  0
  2 10  1  0
  3  4  1  0
  3  9  1  0
  4  5  1  0
  4  8  1  0
  5  6  1  0
  5  7  1  0
  7 11  1  0
  8 12  1  0
  9 13  1  0
 10 14  1  0
 16 17  1  0
M  END
> <minimizedAffinity>
-4.42652

> <CNNscore>
0.7287415862

> <CNNaffinity>
2.6739501953

> <CNN_VS>
1.9486186504

> <CNNaffinity_variance>
0.5019871593

$$$$



 17 17  0  0  0  0  0  0  0  0999 V2000
   18.5085    0.8327   -3.2128 C   0  0  0  0  0  0  0  0  0  0  0  0
   18.8871    2.3229   -3.1784 C   0  0  0  0  0  0  0  0  0  0  0  0
   18.8183    2.9486   -4.5742 C   0  0  0  0  0  0  0  0  0  0  0  0
   17.4715    2.6465   -5.2365 C   0  0  0  0  0  0  0  0  0  0  0  0
   17.1799    1.1339   -5.1829 C   0  0  0  0  0  0  0  0  0  0  0  0
   17.2512    0.6231   -3.8601 O   0  0  0  0  0  0  0  0  0  0  0  0
   18.0051    0.3979   -6.0773 O   0  0  0  0  0  0  0  0  0  0  0  0
   17.4725    3.1377   -6.5806 O   0  0  0  0  0  0  0  0  0  0  0  0
   19.0613    4.3550   -4.4191 O   0  0  0  0  0  0  0  0  0  0  0  0
   20.2155    2.4924   -2.6593 O   0  0  0  0  0  0  0  0  0  0  0  0
   18.9396    0.5886   -5.8884 H   0  0  0  0  0  0  0  0  0  0  0  0
   17.7666    2.4081   -7.1608 H   0  0  0  0  0  0  0  0  0  0  0  0
   18.2260    4.8313   -4.5807 H   0  0  0  0  0  0  0  0  0  0  0  0
   20.5017    3.3828   -2.9560 H   0  0  0  0  0  0  0  0  0  0  0  0
   18.4282    0.2667   -1.7850 C   0  0  0  0  0  0  0  0  0  0  0  0
   17.4382   -0.7447   -1.6543 O   0  0  0  0  0  0  0  0  0  0  0  0
   17.4557   -1.2829   -2.4752 H   0  0  0  0  0  0  0  0  0  0  0  0
 15  1  1  0
 15 16  1  0
  1  2  1  0
  1  6  1  0
  2  3  1  0
  2 10  1  0
  3  4  1  0
  3  9  1  0
  4  5  1  0
  4  8  1  0
  5  6  1  0
  5  7  1  0
  7 11  1  0
  8 12  1  0
  9 13  1  0
 10 14  1  0
 16 17  1  0
M  END
> <minimizedAffinity>
-4.11782

> <CNNscore>
0.7207632065

> <CNNaffinity>
2.5148155689

> <CNN_VS>
1.8125865459

> <CNNaffinity_variance>
0.6253997087

$$$$



 17 17  0  0  0  0  0  0  0  0999 V2000
   19.3684    2.8221   -4.2017 C   0  0  0  0  0  0  0  0  0  0  0  0
   18.4807    3.0065   -5.4438 C   0  0  0  0  0  0  0  0  0  0  0  0
   17.7357    1.7154   -5.7941 C   0  0  0  0  0  0  0  0  0  0  0  0
   17.0094    1.1599   -4.5663 C   0  0  0  0  0  0  0  0  0  0  0  0
   17.9832    1.0507   -3.3765 C   0  0  0  0  0  0  0  0  0  0  0  0
   18.6307    2.2840   -3.1017 O   0  0  0  0  0  0  0  0  0  0  0  0
   18.9171   -0.0087   -3.5449 O   0  0  0  0  0  0  0  0  0  0  0  0
   16.4190   -0.1042   -4.8843 O   0  0  0  0  0  0  0  0  0  0  0  0
   16.8458    2.0220   -6.8781 O   0  0  0  0  0  0  0  0  0  0  0  0
   19.2729    3.4057   -6.5734 O   0  0  0  0  0  0  0  0  0  0  0  0
   19.3916    0.1073   -4.3857 H   0  0  0  0  0  0  0  0  0  0  0  0
   17.0643   -0.7989   -4.6470 H   0  0  0  0  0  0  0  0  0  0  0  0
   15.9316    2.0075   -6.5392 H   0  0  0  0  0  0  0  0  0  0  0  0
   18.7288    3.1967   -7.3627 H   0  0  0  0  0  0  0  0  0  0  0  0
   19.9793    4.1674   -3.7745 C   0  0  0  0  0  0  0  0  0  0  0  0
   20.5105    4.1311   -2.4567 O   0  0  0  0  0  0  0  0  0  0  0  0
   20.9336    3.2539   -2.3329 H   0  0  0  0  0  0  0  0  0  0  0  0
 15  1  1  0
 15 16  1  0
  1  2  1  0
  1  6  1  0
  2  3  1  0
  2 10  1  0
  3  4  1  0
  3  9  1  0
  4  5  1  0
  4  8  1  0
  5  6  1  0
  5  7  1  0
  7 11  1  0
  8 12  1  0
  9 13  1  0
 10 14  1  0
 16 17  1  0
M  END
> <minimizedAffinity>
-3.53919

> <CNNscore>
0.7138459682

> <CNNaffinity>
2.5310707092

> <CNN_VS>
1.8067946434

> <CNNaffinity_variance>
0.4805532396

$$$$



 17 17  0  0  0  0  0  0  0  0999 V2000
   19.2800    3.2035   -3.8645 C   0  0  0  0  0  0  0  0  0  0  0  0
   19.4292    1.8105   -3.2302 C   0  0  0  0  0  0  0  0  0  0  0  0
   18.2650    0.8939   -3.6159 C   0  0  0  0  0  0  0  0  0  0  0  0
   18.0622    0.8867   -5.1333 C   0  0  0  0  0  0  0  0  0  0  0  0
   17.9609    2.3306   -5.6632 C   0  0  0  0  0  0  0  0  0  0  0  0
   19.0757    3.1203   -5.2770 O   0  0  0  0  0  0  0  0  0  0  0  0
   16.7297    2.9465   -5.3061 O   0  0  0  0  0  0  0  0  0  0  0  0
   16.8997    0.1198   -5.4623 O   0  0  0  0  0  0  0  0  0  0  0  0
   18.5583   -0.4075   -3.0856 O   0  0  0  0  0  0  0  0  0  0  0  0
   19.4838    1.9131   -1.7986 O   0  0  0  0  0  0  0  0  0  0  0  0
   16.6169    2.9112   -4.3410 H   0  0  0  0  0  0  0  0  0  0  0  0
   16.1416    0.7356   -5.5014 H   0  0  0  0  0  0  0  0  0  0  0  0
   18.7730   -1.0014   -3.8286 H   0  0  0  0  0  0  0  0  0  0  0  0
   19.2591    1.0191   -1.4626 H   0  0  0  0  0  0  0  0  0  0  0  0
   20.5347    4.0519   -3.5970 C   0  0  0  0  0  0  0  0  0  0  0  0
   21.6591    3.2625   -3.2330 O   0  0  0  0  0  0  0  0  0  0  0  0
   21.6350    2.4455   -3.7769 H   0  0  0  0  0  0  0  0  0  0  0  0
 15  1  1  0
 15 16  1  0
  1  2  1  0
  1  6  1  0
  2  3  1  0
  2 10  1  0
  3  4  1  0
  3  9  1  0
  4  5  1  0
  4  8  1  0
  5  6  1  0
  5  7  1  0
  7 11  1  0
  8 12  1  0
  9 13  1  0
 10 14  1  0
 16 17  1  0
M  END
> <minimizedAffinity>
-3.03588

> <CNNscore>
0.6791448593

> <CNNaffinity>
2.5655400753

> <CNN_VS>
1.7423733473

> <CNNaffinity_variance>
0.4627983868

$$$$



 17 17  0  0  0  0  0  0  0  0999 V2000
   18.7955    0.7563   -3.1160 C   0  0  0  0  0  0  0  0  0  0  0  0
   19.7821    0.1111   -2.1285 C   0  0  0  0  0  0  0  0  0  0  0  0
   21.1236    0.8491   -2.1173 C   0  0  0  0  0  0  0  0  0  0  0  0
   20.9122    2.3523   -1.9190 C   0  0  0  0  0  0  0  0  0  0  0  0
   19.8823    2.8832   -2.9354 C   0  0  0  0  0  0  0  0  0  0  0  0
   18.6612    2.1607   -2.8849 O   0  0  0  0  0  0  0  0  0  0  0  0
   20.4103    2.9343   -4.2551 O   0  0  0  0  0  0  0  0  0  0  0  0
   22.1647    3.0356   -2.0291 O   0  0  0  0  0  0  0  0  0  0  0  0
   21.9233    0.2564   -1.0827 O   0  0  0  0  0  0  0  0  0  0  0  0
   20.0124   -1.2639   -2.4738 O   0  0  0  0  0  0  0  0  0  0  0  0
   20.7405    2.0551   -4.5069 H   0  0  0  0  0  0  0  0  0  0  0  0
   22.2688    3.3119   -2.9608 H   0  0  0  0  0  0  0  0  0  0  0  0
   21.9994    0.8942   -0.3490 H   0  0  0  0  0  0  0  0  0  0  0  0
   20.8527   -1.5088   -2.0305 H   0  0  0  0  0  0  0  0  0  0  0  0
   17.4091    0.1018   -2.9937 C   0  0  0  0  0  0  0  0  0  0  0  0
   17.2864   -0.7016   -1.8277 O   0  0  0  0  0  0  0  0  0  0  0  0
   17.7601   -0.2418   -1.1010 H   0  0  0  0  0  0  0  0  0  0  0  0
 15  1  1  0
 15 16  1  0
  1  2  1  0
  1  6  1  0
  2  3  1  0
  2 10  1  0
  3  4  1  0
  3  9  1  0
  4  5  1  0
  4  8  1  0
  5  6  1  0
  5  7  1  0
  7 11  1  0
  8 12  1  0
  9 13  1  0
 10 14  1  0
 16 17  1  0
M  END
> <minimizedAffinity>
-3.07759

> <CNNscore>
0.6612923145

> <CNNaffinity>
2.7887594700

> <CNN_VS>
1.8441852331

> <CNNaffinity_variance>
0.3906613290

$$$$
