


 17 17  0  0  0  0  0  0  0  0999 V2000
   -7.3056    6.5174  -12.2221 C   0  0  0  0  0  0  0  0  0  0  0  0
   -6.9736    5.0580  -11.8687 C   0  0  0  0  0  0  0  0  0  0  0  0
   -6.8915    4.1846  -13.1237 C   0  0  0  0  0  0  0  0  0  0  0  0
   -5.9628    4.8176  -14.1633 C   0  0  0  0  0  0  0  0  0  0  0  0
   -6.3650    6.2845  -14.4127 C   0  0  0  0  0  0  0  0  0  0  0  0
   -6.4119    7.0370  -13.2096 O   0  0  0  0  0  0  0  0  0  0  0  0
   -7.5782    6.3892  -15.1474 O   0  0  0  0  0  0  0  0  0  0  0  0
   -5.9920    4.0487  -15.3698 O   0  0  0  0  0  0  0  0  0  0  0  0
   -6.4554    2.8827  -12.7045 O   0  0  0  0  0  0  0  0  0  0  0  0
   -7.9708    4.5141  -10.9898 O   0  0  0  0  0  0  0  0  0  0  0  0
   -8.2804    5.8995  -14.6863 H   0  0  0  0  0  0  0  0  0  0  0  0
   -6.6785    4.4346  -15.9487 H   0  0  0  0  0  0  0  0  0  0  0  0
   -5.5407    2.7497  -13.0151 H   0  0  0  0  0  0  0  0  0  0  0  0
   -7.8830    3.5397  -11.0642 H   0  0  0  0  0  0  0  0  0  0  0  0
   -7.2244    7.4046  -10.9684 C   0  0  0  0  0  0  0  0  0  0  0  0
   -7.0901    6.6479   -9.7728 O   0  0  0  0  0  0  0  0  0  0  0  0
   -6.4972    5.8901   -9.9679 H   0  0  0  0  0  0  0  0  0  0  0  0
 15  1  1  0
 15 16  1  0
  1  2  1  0
  1  6  1  0
  2  3  1  0
  2 10  1  0
  3  4  1  0
  3  9  1  0
  4  5  1  0
  4  8  1  0
  5  6  1  0
  5  7  1  0
  7 11  1  0
  8 12  1  0
  9 13  1  0
 10 14  1  0
 16 17  1  0
M  END
> <minimizedAffinity>
-4.81099

> <CNNscore>
0.9385010004

> <CNNaffinity>
2.5838184357

> <CNN_VS>
2.4249162674

> <CNNaffinity_variance>
0.5441873670

$$$$



 17 17  0  0  0  0  0  0  0  0999 V2000
   -6.5690    7.4173  -13.8335 C   0  0  0  0  0  0  0  0  0  0  0  0
   -6.5905    7.6265  -12.3101 C   0  0  0  0  0  0  0  0  0  0  0  0
   -7.1738    6.4090  -11.5876 C   0  0  0  0  0  0  0  0  0  0  0  0
   -6.4794    5.1240  -12.0464 C   0  0  0  0  0  0  0  0  0  0  0  0
   -6.4859    5.0363  -13.5853 C   0  0  0  0  0  0  0  0  0  0  0  0
   -5.9234    6.1921  -14.1882 O   0  0  0  0  0  0  0  0  0  0  0  0
   -7.7809    4.7510  -14.0995 O   0  0  0  0  0  0  0  0  0  0  0  0
   -7.1165    3.9903  -11.4493 O   0  0  0  0  0  0  0  0  0  0  0  0
   -7.0340    6.6468  -10.1788 O   0  0  0  0  0  0  0  0  0  0  0  0
   -7.3712    8.7838  -11.9724 O   0  0  0  0  0  0  0  0  0  0  0  0
   -8.4122    5.4164  -13.7767 H   0  0  0  0  0  0  0  0  0  0  0  0
   -7.8042    3.6779  -12.0697 H   0  0  0  0  0  0  0  0  0  0  0  0
   -6.3480    6.0468   -9.8319 H   0  0  0  0  0  0  0  0  0  0  0  0
   -7.6047    8.6760  -11.0256 H   0  0  0  0  0  0  0  0  0  0  0  0
   -5.8351    8.5791  -14.5241 C   0  0  0  0  0  0  0  0  0  0  0  0
   -5.2991    9.5135  -13.5969 O   0  0  0  0  0  0  0  0  0  0  0  0
   -4.9566    9.0051  -12.8300 H   0  0  0  0  0  0  0  0  0  0  0  0
 15  1  1  0
 15 16  1  0
  1  2  1  0
  1  6  1  0
  2  3  1  0
  2 10  1  0
  3  4  1  0
  3  9  1  0
  4  5  1  0
  4  8  1  0
  5  6  1  0
  5  7  1  0
  7 11  1  0
  8 12  1  0
  9 13  1  0
 10 14  1  0
 16 17  1  0
M  END
> <minimizedAffinity>
-3.88121

> <CNNscore>
0.9211306572

> <CNNaffinity>
2.5914635658

> <CNN_VS>
2.3870766163

> <CNNaffinity_variance>
0.4678723812

$$$$



 17 17  0  0  0  0  0  0  0  0999 V2000
   -7.4789    5.1196  -13.0062 C   0  0  0  0  0  0  0  0  0  0  0  0
   -6.3717    4.1712  -13.4956 C   0  0  0  0  0  0  0  0  0  0  0  0
   -6.4831    3.9126  -15.0006 C   0  0  0  0  0  0  0  0  0  0  0  0
   -6.5805    5.2324  -15.7704 C   0  0  0  0  0  0  0  0  0  0  0  0
   -7.6948    6.1148  -15.1742 C   0  0  0  0  0  0  0  0  0  0  0  0
   -7.5240    6.3209  -13.7799 O   0  0  0  0  0  0  0  0  0  0  0  0
   -8.9919    5.6169  -15.4784 O   0  0  0  0  0  0  0  0  0  0  0  0
   -6.8018    4.9672  -17.1591 O   0  0  0  0  0  0  0  0  0  0  0  0
   -5.3425    3.1277  -15.3800 O   0  0  0  0  0  0  0  0  0  0  0  0
   -6.4430    2.9151  -12.8028 O   0  0  0  0  0  0  0  0  0  0  0  0
   -9.0652    4.6958  -15.1760 H   0  0  0  0  0  0  0  0  0  0  0  0
   -7.7677    4.9666  -17.3088 H   0  0  0  0  0  0  0  0  0  0  0  0
   -4.7441    3.6891  -15.9069 H   0  0  0  0  0  0  0  0  0  0  0  0
   -5.9488    2.2783  -13.3623 H   0  0  0  0  0  0  0  0  0  0  0  0
   -7.2532    5.4916  -11.5310 C   0  0  0  0  0  0  0  0  0  0  0  0
   -5.9168    5.2567  -11.1078 O   0  0  0  0  0  0  0  0  0  0  0  0
   -5.3240    5.5047  -11.8501 H   0  0  0  0  0  0  0  0  0  0  0  0
 15  1  1  0
 15 16  1  0
  1  2  1  0
  1  6  1  0
  2  3  1  0
  2 10  1  0
  3  4  1  0
  3  9  1  0
  4  5  1  0
  4  8  1  0
  5  6  1  0
  5  7  1  0
  7 11  1  0
  8 12  1  0
  9 13  1  0
 10 14  1  0
 16 17  1  0
M  END
> <minimizedAffinity>
-3.45639

> <CNNscore>
0.8907438517

> <CNNaffinity>
2.5120847225

> <CNN_VS>
2.2376239300

> <CNNaffinity_variance>
0.6028411984

$$$$



 17 17  0  0  0  0  0  0  0  0999 V2000
   -6.8517    5.7382  -13.0050 C   0  0  0  0  0  0  0  0  0  0  0  0
   -6.9807    5.6173  -11.4773 C   0  0  0  0  0  0  0  0  0  0  0  0
   -7.5523    6.8977  -10.8623 C   0  0  0  0  0  0  0  0  0  0  0  0
   -8.8378    7.3158  -11.5810 C   0  0  0  0  0  0  0  0  0  0  0  0
   -8.6023    7.3701  -13.1033 C   0  0  0  0  0  0  0  0  0  0  0  0
   -8.0816    6.1490  -13.6069 O   0  0  0  0  0  0  0  0  0  0  0  0
   -7.7990    8.4813  -13.4812 O   0  0  0  0  0  0  0  0  0  0  0  0
   -9.2902    8.5737  -11.0705 O   0  0  0  0  0  0  0  0  0  0  0  0
   -7.7523    6.6419   -9.4639 O   0  0  0  0  0  0  0  0  0  0  0  0
   -5.7003    5.3497  -10.8842 O   0  0  0  0  0  0  0  0  0  0  0  0
   -6.9600    8.4571  -12.9904 H   0  0  0  0  0  0  0  0  0  0  0  0
   -8.9089    9.2750  -11.6346 H   0  0  0  0  0  0  0  0  0  0  0  0
   -8.7112    6.5866   -9.2952 H   0  0  0  0  0  0  0  0  0  0  0  0
   -5.7914    5.5984   -9.9394 H   0  0  0  0  0  0  0  0  0  0  0  0
   -6.4297    4.3913  -13.6159 C   0  0  0  0  0  0  0  0  0  0  0  0
   -6.4622    3.3300  -12.6711 O   0  0  0  0  0  0  0  0  0  0  0  0
   -7.2468    3.4691  -12.0975 H   0  0  0  0  0  0  0  0  0  0  0  0
 15  1  1  0
 15 16  1  0
  1  2  1  0
  1  6  1  0
  2  3  1  0
  2 10  1  0
  3  4  1  0
  3  9  1  0
  4  5  1  0
  4  8  1  0
  5  6  1  0
  5  7  1  0
  7 11  1  0
  8 12  1  0
  9 13  1  0
 10 14  1  0
 16 17  1  0
M  END
> <minimizedAffinity>
-4.20346

> <CNNscore>
0.8617336154

> <CNNaffinity>
2.6414239407

> <CNN_VS>
2.2762038708

> <CNNaffinity_variance>
0.3927354515

$$$$



 17 17  0  0  0  0  0  0  0  0999 V2000
   -6.2619    7.0910  -13.5305 C   0  0  0  0  0  0  0  0  0  0  0  0
   -6.9095    5.7642  -13.1000 C   0  0  0  0  0  0  0  0  0  0  0  0
   -6.9114    5.6125  -11.5764 C   0  0  0  0  0  0  0  0  0  0  0  0
   -7.5019    6.8577  -10.9097 C   0  0  0  0  0  0  0  0  0  0  0  0
   -6.8046    8.1260  -11.4397 C   0  0  0  0  0  0  0  0  0  0  0  0
   -6.8485    8.2069  -12.8565 O   0  0  0  0  0  0  0  0  0  0  0  0
   -5.4770    8.2529  -10.9455 O   0  0  0  0  0  0  0  0  0  0  0  0
   -7.3867    6.7457   -9.4878 O   0  0  0  0  0  0  0  0  0  0  0  0
   -7.6436    4.4158  -11.2720 O   0  0  0  0  0  0  0  0  0  0  0  0
   -6.2069    4.6516  -13.6758 O   0  0  0  0  0  0  0  0  0  0  0  0
   -4.9721    7.4505  -11.1617 H   0  0  0  0  0  0  0  0  0  0  0  0
   -6.5467    7.1712   -9.2257 H   0  0  0  0  0  0  0  0  0  0  0  0
   -8.4933    4.6695  -10.8664 H   0  0  0  0  0  0  0  0  0  0  0  0
   -6.4521    3.8748  -13.1289 H   0  0  0  0  0  0  0  0  0  0  0  0
   -6.4149    7.2952  -15.0472 C   0  0  0  0  0  0  0  0  0  0  0  0
   -5.4321    8.1722  -15.5812 O   0  0  0  0  0  0  0  0  0  0  0  0
   -4.5866    7.9848  -15.1188 H   0  0  0  0  0  0  0  0  0  0  0  0
 15  1  1  0
 15 16  1  0
  1  2  1  0
  1  6  1  0
  2  3  1  0
  2 10  1  0
  3  4  1  0
  3  9  1  0
  4  5  1  0
  4  8  1  0
  5  6  1  0
  5  7  1  0
  7 11  1  0
  8 12  1  0
  9 13  1  0
 10 14  1  0
 16 17  1  0
M  END
> <minimizedAffinity>
-4.38370

> <CNNscore>
0.8576548696

> <CNNaffinity>
2.7048549652

> <CNN_VS>
2.3198320866

> <CNNaffinity_variance>
0.3920579851

$$$$



 17 17  0  0  0  0  0  0  0  0999 V2000
   -6.9958    4.1440  -15.1106 C   0  0  0  0  0  0  0  0  0  0  0  0
   -7.0319    3.7459  -13.6256 C   0  0  0  0  0  0  0  0  0  0  0  0
   -6.4531    4.8507  -12.7374 C   0  0  0  0  0  0  0  0  0  0  0  0
   -7.1079    6.1978  -13.0540 C   0  0  0  0  0  0  0  0  0  0  0  0
   -7.0454    6.4766  -14.5686 C   0  0  0  0  0  0  0  0  0  0  0  0
   -7.6067    5.4177  -15.3298 O   0  0  0  0  0  0  0  0  0  0  0  0
   -5.7282    6.7952  -15.0002 O   0  0  0  0  0  0  0  0  0  0  0  0
   -6.4723    7.2339  -12.2988 O   0  0  0  0  0  0  0  0  0  0  0  0
   -6.6468    4.4422  -11.3748 O   0  0  0  0  0  0  0  0  0  0  0  0
   -6.2843    2.5386  -13.4103 O   0  0  0  0  0  0  0  0  0  0  0  0
   -5.1206    6.0811  -14.7428 H   0  0  0  0  0  0  0  0  0  0  0  0
   -5.7577    7.6060  -12.8522 H   0  0  0  0  0  0  0  0  0  0  0  0
   -7.3338    5.0092  -10.9782 H   0  0  0  0  0  0  0  0  0  0  0  0
   -6.0826    2.5224  -12.4502 H   0  0  0  0  0  0  0  0  0  0  0  0
   -7.7254    3.0938  -15.9652 C   0  0  0  0  0  0  0  0  0  0  0  0
   -8.5854    2.2654  -15.1943 O   0  0  0  0  0  0  0  0  0  0  0  0
   -9.0080    2.8317  -14.5128 H   0  0  0  0  0  0  0  0  0  0  0  0
 15  1  1  0
 15 16  1  0
  1  2  1  0
  1  6  1  0
  2  3  1  0
  2 10  1  0
  3  4  1  0
  3  9  1  0
  4  5  1  0
  4  8  1  0
  5  6  1  0
  5  7  1  0
  7 11  1  0
  8 12  1  0
  9 13  1  0
 10 14  1  0
 16 17  1  0
M  END
> <minimizedAffinity>
-3.65943

> <CNNscore>
0.8467486501

> <CNNaffinity>
2.4817533493

> <CNN_VS>
2.1014213562

> <CNNaffinity_variance>
0.5115842223

$$$$



 17 17  0  0  0  0  0  0  0  0999 V2000
   -7.2350    4.6719  -14.0046 C   0  0  0  0  0  0  0  0  0  0  0  0
   -7.1892    6.1896  -14.2488 C   0  0  0  0  0  0  0  0  0  0  0  0
   -7.4174    6.9708  -12.9518 C   0  0  0  0  0  0  0  0  0  0  0  0
   -6.4804    6.4725  -11.8484 C   0  0  0  0  0  0  0  0  0  0  0  0
   -6.5828    4.9403  -11.7155 C   0  0  0  0  0  0  0  0  0  0  0  0
   -6.3512    4.2806  -12.9512 O   0  0  0  0  0  0  0  0  0  0  0  0
   -7.8112    4.5354  -11.1240 O   0  0  0  0  0  0  0  0  0  0  0  0
   -6.7898    7.1321  -10.6167 O   0  0  0  0  0  0  0  0  0  0  0  0
   -7.2304    8.3609  -13.2575 O   0  0  0  0  0  0  0  0  0  0  0  0
   -8.1894    6.5755  -15.2045 O   0  0  0  0  0  0  0  0  0  0  0  0
   -8.5535    4.9002  -11.6352 H   0  0  0  0  0  0  0  0  0  0  0  0
   -7.4310    6.5727  -10.1358 H   0  0  0  0  0  0  0  0  0  0  0  0
   -6.3997    8.6583  -12.8425 H   0  0  0  0  0  0  0  0  0  0  0  0
   -8.3191    7.5393  -15.0741 H   0  0  0  0  0  0  0  0  0  0  0  0
   -6.8453    3.9110  -15.2831 C   0  0  0  0  0  0  0  0  0  0  0  0
   -5.4431    3.9162  -15.5148 O   0  0  0  0  0  0  0  0  0  0  0  0
   -4.9995    3.8221  -14.6440 H   0  0  0  0  0  0  0  0  0  0  0  0
 15  1  1  0
 15 16  1  0
  1  2  1  0
  1  6  1  0
  2  3  1  0
  2 10  1  0
  3  4  1  0
  3  9  1  0
  4  5  1  0
  4  8  1  0
  5  6  1  0
  5  7  1  0
  7 11  1  0
  8 12  1  0
  9 13  1  0
 10 14  1  0
 16 17  1  0
M  END
> <minimizedAffinity>
-3.73461

> <CNNscore>
0.8464506865

> <CNNaffinity>
2.6755332947

> <CNN_VS>
2.2647070885

> <CNNaffinity_variance>
0.3622001708

$$$$



 17 17  0  0  0  0  0  0  0  0999 V2000
   -6.6844    6.5659  -12.4411 C   0  0  0  0  0  0  0  0  0  0  0  0
   -7.7109    5.9596  -11.4698 C   0  0  0  0  0  0  0  0  0  0  0  0
   -7.5463    6.5276  -10.0575 C   0  0  0  0  0  0  0  0  0  0  0  0
   -7.5231    8.0580  -10.0894 C   0  0  0  0  0  0  0  0  0  0  0  0
   -6.4874    8.5529  -11.1181 C   0  0  0  0  0  0  0  0  0  0  0  0
   -6.7050    7.9949  -12.4054 O   0  0  0  0  0  0  0  0  0  0  0  0
   -5.1519    8.3482  -10.6738 O   0  0  0  0  0  0  0  0  0  0  0  0
   -7.2512    8.5651   -8.7792 O   0  0  0  0  0  0  0  0  0  0  0  0
   -8.6201    6.0019   -9.2628 O   0  0  0  0  0  0  0  0  0  0  0  0
   -7.5685    4.5314  -11.4146 O   0  0  0  0  0  0  0  0  0  0  0  0
   -5.0217    7.4089  -10.4590 H   0  0  0  0  0  0  0  0  0  0  0  0
   -6.2843    8.6883   -8.7056 H   0  0  0  0  0  0  0  0  0  0  0  0
   -9.2436    6.7263   -9.0701 H   0  0  0  0  0  0  0  0  0  0  0  0
   -8.0037    4.2563  -10.5794 H   0  0  0  0  0  0  0  0  0  0  0  0
   -6.9703    6.1047  -13.8803 C   0  0  0  0  0  0  0  0  0  0  0  0
   -8.1756    5.3588  -13.9845 O   0  0  0  0  0  0  0  0  0  0  0  0
   -8.8320    5.7726  -13.3829 H   0  0  0  0  0  0  0  0  0  0  0  0
 15  1  1  0
 15 16  1  0
  1  2  1  0
  1  6  1  0
  2  3  1  0
  2 10  1  0
  3  4  1  0
  3  9  1  0
  4  5  1  0
  4  8  1  0
  5  6  1  0
  5  7  1  0
  7 11  1  0
  8 12  1  0
  9 13  1  0
 10 14  1  0
 16 17  1  0
M  END
> <minimizedAffinity>
-4.32391

> <CNNscore>
0.8245694637

> <CNNaffinity>
2.5321528912

> <CNN_VS>
2.0879359245

> <CNNaffinity_variance>
0.4599520862

$$$$



 17 17  0  0  0  0  0  0  0  0999 V2000
   -7.9953    5.6599  -14.7213 C   0  0  0  0  0  0  0  0  0  0  0  0
   -7.6181    4.2296  -14.3008 C   0  0  0  0  0  0  0  0  0  0  0  0
   -6.5739    4.2342  -13.1809 C   0  0  0  0  0  0  0  0  0  0  0  0
   -7.0180    5.1422  -12.0311 C   0  0  0  0  0  0  0  0  0  0  0  0
   -7.4041    6.5334  -12.5708 C   0  0  0  0  0  0  0  0  0  0  0  0
   -8.3813    6.4552  -13.5978 O   0  0  0  0  0  0  0  0  0  0  0  0
   -6.2670    7.2826  -12.9813 O   0  0  0  0  0  0  0  0  0  0  0  0
   -5.9787    5.2249  -11.0509 O   0  0  0  0  0  0  0  0  0  0  0  0
   -6.3847    2.8704  -12.7742 O   0  0  0  0  0  0  0  0  0  0  0  0
   -7.0941    3.4980  -15.4201 O   0  0  0  0  0  0  0  0  0  0  0  0
   -5.7615    6.7726  -13.6368 H   0  0  0  0  0  0  0  0  0  0  0  0
   -5.4277    6.0018  -11.2703 H   0  0  0  0  0  0  0  0  0  0  0  0
   -6.7772    2.7559  -11.8889 H   0  0  0  0  0  0  0  0  0  0  0  0
   -6.5950    2.7473  -15.0327 H   0  0  0  0  0  0  0  0  0  0  0  0
   -9.1569    5.6339  -15.7291 C   0  0  0  0  0  0  0  0  0  0  0  0
  -10.0345    4.5353  -15.5214 O   0  0  0  0  0  0  0  0  0  0  0  0
  -10.1246    4.4085  -14.5520 H   0  0  0  0  0  0  0  0  0  0  0  0
 15  1  1  0
 15 16  1  0
  1  2  1  0
  1  6  1  0
  2  3  1  0
  2 10  1  0
  3  4  1  0
  3  9  1  0
  4  5  1  0
  4  8  1  0
  5  6  1  0
  5  7  1  0
  7 11  1  0
  8 12  1  0
  9 13  1  0
 10 14  1  0
 16 17  1  0
M  END
> <minimizedAffinity>
-3.90721

> <CNNscore>
0.8139921427

> <CNNaffinity>
2.4658191204

> <CNN_VS>
2.0071573257

> <CNNaffinity_variance>
0.5417384505

$$$$



 17 17  0  0  0  0  0  0  0  0999 V2000
   -6.5506    4.3380  -13.4214 C   0  0  0  0  0  0  0  0  0  0  0  0
   -7.9868    4.5395  -13.9331 C   0  0  0  0  0  0  0  0  0  0  0  0
   -8.1486    4.0154  -15.3626 C   0  0  0  0  0  0  0  0  0  0  0  0
   -7.6254    2.5811  -15.4753 C   0  0  0  0  0  0  0  0  0  0  0  0
   -6.1972    2.4895  -14.9030 C   0  0  0  0  0  0  0  0  0  0  0  0
   -6.1221    2.9827  -13.5738 O   0  0  0  0  0  0  0  0  0  0  0  0
   -5.2400    3.1120  -15.7510 O   0  0  0  0  0  0  0  0  0  0  0  0
   -7.6769    2.1531  -16.8398 O   0  0  0  0  0  0  0  0  0  0  0  0
   -9.5393    4.1306  -15.6999 O   0  0  0  0  0  0  0  0  0  0  0  0
   -8.3393    5.9316  -13.9071 O   0  0  0  0  0  0  0  0  0  0  0  0
   -5.5015    4.0343  -15.9136 H   0  0  0  0  0  0  0  0  0  0  0  0
   -6.8108    2.3555  -17.2451 H   0  0  0  0  0  0  0  0  0  0  0  0
   -9.9229    3.2347  -15.7345 H   0  0  0  0  0  0  0  0  0  0  0  0
   -9.1007    6.0211  -14.5193 H   0  0  0  0  0  0  0  0  0  0  0  0
   -6.4520    4.7220  -11.9353 C   0  0  0  0  0  0  0  0  0  0  0  0
   -7.6883    4.5723  -11.2503 O   0  0  0  0  0  0  0  0  0  0  0  0
   -8.1218    3.7625  -11.5970 H   0  0  0  0  0  0  0  0  0  0  0  0
 15  1  1  0
 15 16  1  0
  1  2  1  0
  1  6  1  0
  2  3  1  0
  2 10  1  0
  3  4  1  0
  3  9  1  0
  4  5  1  0
  4  8  1  0
  5  6  1  0
  5  7  1  0
  7 11  1  0
  8 12  1  0
  9 13  1  0
 10 14  1  0
 16 17  1  0
M  END
> <minimizedAffinity>
-3.79078

> <CNNscore>
0.8103805184

> <CNNaffinity>
2.6411185265

> <CNN_VS>
2.1403110027

> <CNNaffinity_variance>
0.4621750414

$$$$



 17 17  0  0  0  0  0  0  0  0999 V2000
   -6.4406    8.2115  -11.6684 C   0  0  0  0  0  0  0  0  0  0  0  0
   -6.6457    6.8330  -11.0182 C   0  0  0  0  0  0  0  0  0  0  0  0
   -7.6570    5.9914  -11.8013 C   0  0  0  0  0  0  0  0  0  0  0  0
   -7.2900    5.9489  -13.2870 C   0  0  0  0  0  0  0  0  0  0  0  0
   -7.0745    7.3780  -13.8227 C   0  0  0  0  0  0  0  0  0  0  0  0
   -6.1193    8.0968  -13.0567 O   0  0  0  0  0  0  0  0  0  0  0  0
   -8.2976    8.0934  -13.9457 O   0  0  0  0  0  0  0  0  0  0  0  0
   -8.3085    5.2582  -14.0173 O   0  0  0  0  0  0  0  0  0  0  0  0
   -7.6832    4.6903  -11.1952 O   0  0  0  0  0  0  0  0  0  0  0  0
   -7.1111    6.9785   -9.6672 O   0  0  0  0  0  0  0  0  0  0  0  0
   -8.7584    8.0983  -13.0895 H   0  0  0  0  0  0  0  0  0  0  0  0
   -8.9478    5.9260  -14.3347 H   0  0  0  0  0  0  0  0  0  0  0  0
   -7.2595    4.0581  -11.8049 H   0  0  0  0  0  0  0  0  0  0  0  0
   -7.5140    6.1148   -9.4338 H   0  0  0  0  0  0  0  0  0  0  0  0
   -5.3076    8.9746  -10.9617 C   0  0  0  0  0  0  0  0  0  0  0  0
   -5.5974    9.2387   -9.5955 O   0  0  0  0  0  0  0  0  0  0  0  0
   -6.0595    8.4514   -9.2342 H   0  0  0  0  0  0  0  0  0  0  0  0
 15  1  1  0
 15 16  1  0
  1  2  1  0
  1  6  1  0
  2  3  1  0
  2 10  1  0
  3  4  1  0
  3  9  1  0
  4  5  1  0
  4  8  1  0
  5  6  1  0
  5  7  1  0
  7 11  1  0
  8 12  1  0
  9 13  1  0
 10 14  1  0
 16 17  1  0
M  END
> <minimizedAffinity>
-4.20311

> <CNNscore>
0.7933362722

> <CNNaffinity>
2.5346529484

> <CNN_VS>
2.0108320713

> <CNNaffinity_variance>
0.4592672884

$$$$



 17 17  0  0  0  0  0  0  0  0999 V2000
   -8.0373    6.7282  -10.0531 C   0  0  0  0  0  0  0  0  0  0  0  0
   -9.3383    5.9582   -9.7711 C   0  0  0  0  0  0  0  0  0  0  0  0
  -10.0799    6.5386   -8.5638 C   0  0  0  0  0  0  0  0  0  0  0  0
  -10.2526    8.0525   -8.7118 C   0  0  0  0  0  0  0  0  0  0  0  0
   -8.8965    8.7143   -9.0262 C   0  0  0  0  0  0  0  0  0  0  0  0
   -8.2699    8.1346  -10.1607 O   0  0  0  0  0  0  0  0  0  0  0  0
   -8.0327    8.7274   -7.8963 O   0  0  0  0  0  0  0  0  0  0  0  0
  -10.8409    8.5907   -7.5236 O   0  0  0  0  0  0  0  0  0  0  0  0
  -11.3306    5.8413   -8.4611 O   0  0  0  0  0  0  0  0  0  0  0  0
   -9.0580    4.5720   -9.5205 O   0  0  0  0  0  0  0  0  0  0  0  0
   -7.9195    7.8207   -7.5638 H   0  0  0  0  0  0  0  0  0  0  0  0
  -10.1127    8.8692   -6.9341 H   0  0  0  0  0  0  0  0  0  0  0  0
  -12.0461    6.4538   -8.7138 H   0  0  0  0  0  0  0  0  0  0  0  0
   -9.8463    4.2257   -9.0500 H   0  0  0  0  0  0  0  0  0  0  0  0
   -7.3937    6.2336  -11.3595 C   0  0  0  0  0  0  0  0  0  0  0  0
   -6.1887    5.5140  -11.1354 O   0  0  0  0  0  0  0  0  0  0  0  0
   -6.3148    4.9714  -10.3270 H   0  0  0  0  0  0  0  0  0  0  0  0
 15  1  1  0
 15 16  1  0
  1  2  1  0
  1  6  1  0
  2  3  1  0
  2 10  1  0
  3  4  1  0
  3  9  1  0
  4  5  1  0
  4  8  1  0
  5  6  1  0
  5  7  1  0
  7 11  1  0
  8 12  1  0
  9 13  1  0
 10 14  1  0
 16 17  1  0
M  END
> <minimizedAffinity>
-5.55718

> <CNNscore>
0.7612257600

> <CNNaffinity>
2.6231403351

> <CNN_VS>
1.9968019724

> <CNNaffinity_variance>
0.4270147383

$$$$



 17 17  0  0  0  0  0  0  0  0999 V2000
   -7.4280    5.8859  -13.8418 C   0  0  0  0  0  0  0  0  0  0  0  0
   -7.9317    7.2668  -13.3898 C   0  0  0  0  0  0  0  0  0  0  0  0
   -8.2304    7.2880  -11.8882 C   0  0  0  0  0  0  0  0  0  0  0  0
   -7.0383    6.7505  -11.0921 C   0  0  0  0  0  0  0  0  0  0  0  0
   -6.5976    5.3837  -11.6519 C   0  0  0  0  0  0  0  0  0  0  0  0
   -6.3285    5.4391  -13.0449 O   0  0  0  0  0  0  0  0  0  0  0  0
   -7.5236    4.3518  -11.3347 O   0  0  0  0  0  0  0  0  0  0  0  0
   -7.3804    6.6686   -9.7050 O   0  0  0  0  0  0  0  0  0  0  0  0
   -8.5680    8.6401  -11.5436 O   0  0  0  0  0  0  0  0  0  0  0  0
   -9.1245    7.6259  -14.1048 O   0  0  0  0  0  0  0  0  0  0  0  0
   -8.4081    4.6002  -11.6531 H   0  0  0  0  0  0  0  0  0  0  0  0
   -7.7226    5.7682   -9.5385 H   0  0  0  0  0  0  0  0  0  0  0  0
   -7.8380    9.0149  -11.0168 H   0  0  0  0  0  0  0  0  0  0  0  0
   -9.5530    8.3251  -13.5662 H   0  0  0  0  0  0  0  0  0  0  0  0
   -6.9833    5.9325  -15.3134 C   0  0  0  0  0  0  0  0  0  0  0  0
   -5.6440    6.3838  -15.4642 O   0  0  0  0  0  0  0  0  0  0  0  0
   -5.1192    6.0027  -14.7272 H   0  0  0  0  0  0  0  0  0  0  0  0
 15  1  1  0
 15 16  1  0
  1  2  1  0
  1  6  1  0
  2  3  1  0
  2 10  1  0
  3  4  1  0
  3  9  1  0
  4  5  1  0
  4  8  1  0
  5  6  1  0
  5  7  1  0
  7 11  1  0
  8 12  1  0
  9 13  1  0
 10 14  1  0
 16 17  1  0
M  END
> <minimizedAffinity>
-3.90210

> <CNNscore>
0.7561513186

> <CNNaffinity>
3.1137571335

> <CNN_VS>
2.3544714451

> <CNNaffinity_variance>
0.2231287956

$$$$



 17 17  0  0  0  0  0  0  0  0999 V2000
   -8.3584    7.8761  -12.9472 C   0  0  0  0  0  0  0  0  0  0  0  0
   -8.1284    7.8347  -11.4272 C   0  0  0  0  0  0  0  0  0  0  0  0
   -7.8020    6.4168  -10.9504 C   0  0  0  0  0  0  0  0  0  0  0  0
   -6.6693    5.8130  -11.7848 C   0  0  0  0  0  0  0  0  0  0  0  0
   -6.9893    5.9402  -13.2872 C   0  0  0  0  0  0  0  0  0  0  0  0
   -7.2724    7.2803  -13.6610 O   0  0  0  0  0  0  0  0  0  0  0  0
   -8.0230    5.0508  -13.6913 O   0  0  0  0  0  0  0  0  0  0  0  0
   -6.4602    4.4500  -11.4021 O   0  0  0  0  0  0  0  0  0  0  0  0
   -7.4815    6.5040   -9.5538 O   0  0  0  0  0  0  0  0  0  0  0  0
   -9.2937    8.3017  -10.7294 O   0  0  0  0  0  0  0  0  0  0  0  0
   -8.8124    5.2004  -13.1438 H   0  0  0  0  0  0  0  0  0  0  0  0
   -7.0065    3.8918  -11.9897 H   0  0  0  0  0  0  0  0  0  0  0  0
   -6.5244    6.3503   -9.4475 H   0  0  0  0  0  0  0  0  0  0  0  0
   -9.2070    7.9583   -9.8144 H   0  0  0  0  0  0  0  0  0  0  0  0
   -8.5246    9.3285  -13.4252 C   0  0  0  0  0  0  0  0  0  0  0  0
   -8.5870    9.4327  -14.8413 O   0  0  0  0  0  0  0  0  0  0  0  0
   -9.1047    8.6665  -15.1713 H   0  0  0  0  0  0  0  0  0  0  0  0
 15  1  1  0
 15 16  1  0
  1  2  1  0
  1  6  1  0
  2  3  1  0
  2 10  1  0
  3  4  1  0
  3  9  1  0
  4  5  1  0
  4  8  1  0
  5  6  1  0
  5  7  1  0
  7 11  1  0
  8 12  1  0
  9 13  1  0
 10 14  1  0
 16 17  1  0
M  END
> <minimizedAffinity>
-3.68528

> <CNNscore>
0.7289277315

> <CNNaffinity>
2.6718673706

> <CNN_VS>
1.9475982189

> <CNNaffinity_variance>
0.2443346977

$$$$



 17 17  0  0  0  0  0  0  0  0999 V2000
  -10.6516    8.0275   -8.7471 C   0  0  0  0  0  0  0  0  0  0  0  0
   -9.1976    7.5865   -8.9845 C   0  0  0  0  0  0  0  0  0  0  0  0
   -8.2281    8.7639   -8.8496 C   0  0  0  0  0  0  0  0  0  0  0  0
   -8.4629    9.5098   -7.5335 C   0  0  0  0  0  0  0  0  0  0  0  0
   -9.9541    9.8704   -7.3852 C   0  0  0  0  0  0  0  0  0  0  0  0
  -10.7936    8.7323   -7.5115 O   0  0  0  0  0  0  0  0  0  0  0  0
  -10.3431   10.9130   -8.2708 O   0  0  0  0  0  0  0  0  0  0  0  0
   -7.6299   10.6721   -7.4809 O   0  0  0  0  0  0  0  0  0  0  0  0
   -6.8993    8.2319   -8.9606 O   0  0  0  0  0  0  0  0  0  0  0  0
   -9.0529    7.0146  -10.2940 O   0  0  0  0  0  0  0  0  0  0  0  0
  -10.1254   10.6612   -9.1844 H   0  0  0  0  0  0  0  0  0  0  0  0
   -8.1460   11.4210   -7.8389 H   0  0  0  0  0  0  0  0  0  0  0  0
   -6.4758    8.2761   -8.0834 H   0  0  0  0  0  0  0  0  0  0  0  0
   -8.0932    7.0554  -10.4938 H   0  0  0  0  0  0  0  0  0  0  0  0
  -11.5862    6.8062   -8.7281 C   0  0  0  0  0  0  0  0  0  0  0  0
  -10.9300    5.6242   -8.2894 O   0  0  0  0  0  0  0  0  0  0  0  0
  -10.3172    5.8780   -7.5656 H   0  0  0  0  0  0  0  0  0  0  0  0
 15  1  1  0
 15 16  1  0
  1  2  1  0
  1  6  1  0
  2  3  1  0
  2 10  1  0
  3  4  1  0
  3  9  1  0
  4  5  1  0
  4  8  1  0
  5  6  1  0
  5  7  1  0
  7 11  1  0
  8 12  1  0
  9 13  1  0
 10 14  1  0
 16 17  1  0
M  END
> <minimizedAffinity>
-4.35815

> <CNNscore>
0.7214846611

> <CNNaffinity>
2.5623676777

> <CNN_VS>
1.8487089872

> <CNNaffinity_variance>
0.4362006187

$$$$



 17 17  0  0  0  0  0  0  0  0999 V2000
   -6.6137    7.1247  -13.0986 C   0  0  0  0  0  0  0  0  0  0  0  0
   -7.6072    6.1592  -12.4308 C   0  0  0  0  0  0  0  0  0  0  0  0
   -7.5081    6.2240  -10.9042 C   0  0  0  0  0  0  0  0  0  0  0  0
   -7.5994    7.6725  -10.4173 C   0  0  0  0  0  0  0  0  0  0  0  0
   -6.5876    8.5535  -11.1762 C   0  0  0  0  0  0  0  0  0  0  0  0
   -6.7421    8.4523  -12.5839 O   0  0  0  0  0  0  0  0  0  0  0  0
   -5.2477    8.2978  -10.7735 O   0  0  0  0  0  0  0  0  0  0  0  0
   -7.3871    7.7217   -9.0030 O   0  0  0  0  0  0  0  0  0  0  0  0
   -8.5519    5.3909  -10.3774 O   0  0  0  0  0  0  0  0  0  0  0  0
   -7.3588    4.8095  -12.8546 O   0  0  0  0  0  0  0  0  0  0  0  0
   -5.0507    7.3519  -10.8828 H   0  0  0  0  0  0  0  0  0  0  0  0
   -6.4336    7.8754   -8.8532 H   0  0  0  0  0  0  0  0  0  0  0  0
   -9.2311    5.9648   -9.9770 H   0  0  0  0  0  0  0  0  0  0  0  0
   -7.7854    4.2396  -12.1794 H   0  0  0  0  0  0  0  0  0  0  0  0
   -6.8413    7.1614  -14.6192 C   0  0  0  0  0  0  0  0  0  0  0  0
   -7.0166    8.4827  -15.1126 O   0  0  0  0  0  0  0  0  0  0  0  0
   -6.4002    9.0663  -14.6193 H   0  0  0  0  0  0  0  0  0  0  0  0
 15  1  1  0
 15 16  1  0
  1  2  1  0
  1  6  1  0
  2  3  1  0
  2 10  1  0
  3  4  1  0
  3  9  1  0
  4  5  1  0
  4  8  1  0
  5  6  1  0
  5  7  1  0
  7 11  1  0
  8 12  1  0
  9 13  1  0
 10 14  1  0
 16 17  1  0
M  END
> <minimizedAffinity>
-3.84471

> <CNNscore>
0.6595012546

> <CNNaffinity>
2.5823745728

> <CNN_VS>
1.7030792236

> <CNNaffinity_variance>
0.4201016426

$$$$



 17 17  0  0  0  0  0  0  0  0999 V2000
   -6.4534    7.1549  -11.2704 C   0  0  0  0  0  0  0  0  0  0  0  0
   -7.5982    7.4629  -10.2909 C   0  0  0  0  0  0  0  0  0  0  0  0
   -7.1969    8.5465   -9.2863 C   0  0  0  0  0  0  0  0  0  0  0  0
   -6.6278    9.7701  -10.0092 C   0  0  0  0  0  0  0  0  0  0  0  0
   -5.5162    9.3409  -10.9869 C   0  0  0  0  0  0  0  0  0  0  0  0
   -5.9593    8.3426  -11.8940 O   0  0  0  0  0  0  0  0  0  0  0  0
   -4.3296    8.9473  -10.3086 O   0  0  0  0  0  0  0  0  0  0  0  0
   -6.1515   10.7200   -9.0507 O   0  0  0  0  0  0  0  0  0  0  0  0
   -8.3625    8.8512   -8.5055 O   0  0  0  0  0  0  0  0  0  0  0  0
   -7.9755    6.2792   -9.5701 O   0  0  0  0  0  0  0  0  0  0  0  0
   -4.5380    8.2421   -9.6725 H   0  0  0  0  0  0  0  0  0  0  0  0
   -5.2029   10.5375   -8.9013 H   0  0  0  0  0  0  0  0  0  0  0  0
   -8.6786    9.7385   -8.7579 H   0  0  0  0  0  0  0  0  0  0  0  0
   -8.4541    6.5975   -8.7749 H   0  0  0  0  0  0  0  0  0  0  0  0
   -6.9303    6.1853  -12.3650 C   0  0  0  0  0  0  0  0  0  0  0  0
   -8.3233    6.2982  -12.6241 O   0  0  0  0  0  0  0  0  0  0  0  0
   -8.5572    7.2502  -12.5716 H   0  0  0  0  0  0  0  0  0  0  0  0
 15  1  1  0
 15 16  1  0
  1  2  1  0
  1  6  1  0
  2  3  1  0
  2 10  1  0
  3  4  1  0
  3  9  1  0
  4  5  1  0
  4  8  1  0
  5  6  1  0
  5  7  1  0
  7 11  1  0
  8 12  1  0
  9 13  1  0
 10 14  1  0
 16 17  1  0
M  END
> <minimizedAffinity>
-4.06752

> <CNNscore>
0.6507353187

> <CNNaffinity>
2.5127246380

> <CNN_VS>
1.6351187229

> <CNNaffinity_variance>
0.4385969639

$$$$



 17 17  0  0  0  0  0  0  0  0999 V2000
   -7.7750    6.7682  -11.7305 C   0  0  0  0  0  0  0  0  0  0  0  0
   -8.4842    6.7089  -10.3672 C   0  0  0  0  0  0  0  0  0  0  0  0
   -9.4693    7.8690  -10.1995 C   0  0  0  0  0  0  0  0  0  0  0  0
  -10.4086    7.9593  -11.4051 C   0  0  0  0  0  0  0  0  0  0  0  0
   -9.5943    7.9769  -12.7136 C   0  0  0  0  0  0  0  0  0  0  0  0
   -8.7101    6.8700  -12.8070 O   0  0  0  0  0  0  0  0  0  0  0  0
   -8.9148    9.2117  -12.9044 O   0  0  0  0  0  0  0  0  0  0  0  0
  -11.2407    9.1173  -11.2842 O   0  0  0  0  0  0  0  0  0  0  0  0
  -10.1668    7.6556   -8.9630 O   0  0  0  0  0  0  0  0  0  0  0  0
   -7.5252    6.7570   -9.2990 O   0  0  0  0  0  0  0  0  0  0  0  0
   -8.3540    9.3964  -12.1319 H   0  0  0  0  0  0  0  0  0  0  0  0
  -10.7939    9.8512  -11.7503 H   0  0  0  0  0  0  0  0  0  0  0  0
  -11.0866    7.4049   -9.1677 H   0  0  0  0  0  0  0  0  0  0  0  0
   -8.0307    7.0332   -8.5047 H   0  0  0  0  0  0  0  0  0  0  0  0
   -6.9143    5.5113  -11.9424 C   0  0  0  0  0  0  0  0  0  0  0  0
   -5.8986    5.3736  -10.9578 O   0  0  0  0  0  0  0  0  0  0  0  0
   -6.2789    5.6596  -10.0991 H   0  0  0  0  0  0  0  0  0  0  0  0
 15  1  1  0
 15 16  1  0
  1  2  1  0
  1  6  1  0
  2  3  1  0
  2 10  1  0
  3  4  1  0
  3  9  1  0
  4  5  1  0
  4  8  1  0
  5  6  1  0
  5  7  1  0
  7 11  1  0
  8 12  1  0
  9 13  1  0
 10 14  1  0
 16 17  1  0
M  END
> <minimizedAffinity>
-3.63012

> <CNNscore>
0.5701939464

> <CNNaffinity>
2.9419052601

> <CNN_VS>
1.6774566174

> <CNNaffinity_variance>
0.1833321601

$$$$



 17 17  0  0  0  0  0  0  0  0999 V2000
   -8.5638    8.1879  -10.0833 C   0  0  0  0  0  0  0  0  0  0  0  0
   -8.3993    6.6791  -10.3306 C   0  0  0  0  0  0  0  0  0  0  0  0
   -9.2633    5.8583   -9.3692 C   0  0  0  0  0  0  0  0  0  0  0  0
  -10.7115    6.3545   -9.3859 C   0  0  0  0  0  0  0  0  0  0  0  0
  -10.7540    7.8792   -9.1639 C   0  0  0  0  0  0  0  0  0  0  0  0
   -9.9394    8.5769  -10.0941 O   0  0  0  0  0  0  0  0  0  0  0  0
  -10.4433    8.2333   -7.8219 O   0  0  0  0  0  0  0  0  0  0  0  0
  -11.4740    5.6546   -8.3977 O   0  0  0  0  0  0  0  0  0  0  0  0
   -9.1399    4.4825   -9.7600 O   0  0  0  0  0  0  0  0  0  0  0  0
   -7.0265    6.2895  -10.1677 O   0  0  0  0  0  0  0  0  0  0  0  0
   -9.5784    7.8608   -7.5797 H   0  0  0  0  0  0  0  0  0  0  0  0
  -11.4466    6.1828   -7.5757 H   0  0  0  0  0  0  0  0  0  0  0  0
   -9.9841    4.1983  -10.1569 H   0  0  0  0  0  0  0  0  0  0  0  0
   -7.0444    5.3193  -10.0222 H   0  0  0  0  0  0  0  0  0  0  0  0
   -7.8155    8.9926  -11.1594 C   0  0  0  0  0  0  0  0  0  0  0  0
   -6.4196    8.7253  -11.1679 O   0  0  0  0  0  0  0  0  0  0  0  0
   -6.3015    7.7660  -10.9956 H   0  0  0  0  0  0  0  0  0  0  0  0
 15  1  1  0
 15 16  1  0
  1  2  1  0
  1  6  1  0
  2  3  1  0
  2 10  1  0
  3  4  1  0
  3  9  1  0
  4  5  1  0
  4  8  1  0
  5  6  1  0
  5  7  1  0
  7 11  1  0
  8 12  1  0
  9 13  1  0
 10 14  1  0
 16 17  1  0
M  END
> <minimizedAffinity>
-5.08992

> <CNNscore>
0.5366261005

> <CNNaffinity>
2.5303497314

> <CNN_VS>
1.3578517437

> <CNNaffinity_variance>
0.4214409590

$$$$



 17 17  0  0  0  0  0  0  0  0999 V2000
   -9.5974    8.2387   -9.1064 C   0  0  0  0  0  0  0  0  0  0  0  0
   -9.6025    6.7394   -8.7644 C   0  0  0  0  0  0  0  0  0  0  0  0
   -9.3375    5.8828  -10.0056 C   0  0  0  0  0  0  0  0  0  0  0  0
   -8.0838    6.3667  -10.7389 C   0  0  0  0  0  0  0  0  0  0  0  0
   -8.1713    7.8836  -10.9978 C   0  0  0  0  0  0  0  0  0  0  0  0
   -8.4084    8.6159   -9.8049 O   0  0  0  0  0  0  0  0  0  0  0  0
   -9.1210    8.2001  -12.0081 O   0  0  0  0  0  0  0  0  0  0  0  0
   -7.9209    5.6310  -11.9555 O   0  0  0  0  0  0  0  0  0  0  0  0
   -9.2357    4.5204   -9.5647 O   0  0  0  0  0  0  0  0  0  0  0  0
  -10.8660    6.3570   -8.1984 O   0  0  0  0  0  0  0  0  0  0  0  0
   -9.9866    7.8280  -11.7680 H   0  0  0  0  0  0  0  0  0  0  0  0
   -8.3645    6.1345  -12.6661 H   0  0  0  0  0  0  0  0  0  0  0  0
   -8.3046    4.2409   -9.6412 H   0  0  0  0  0  0  0  0  0  0  0  0
  -10.9168    5.3828   -8.3036 H   0  0  0  0  0  0  0  0  0  0  0  0
   -9.7044    9.0816   -7.8244 C   0  0  0  0  0  0  0  0  0  0  0  0
  -11.0151    9.0740   -7.2747 O   0  0  0  0  0  0  0  0  0  0  0  0
  -11.3773    8.1685   -7.3873 H   0  0  0  0  0  0  0  0  0  0  0  0
 15  1  1  0
 15 16  1  0
  1  2  1  0
  1  6  1  0
  2  3  1  0
  2 10  1  0
  3  4  1  0
  3  9  1  0
  4  5  1  0
  4  8  1  0
  5  6  1  0
  5  7  1  0
  7 11  1  0
  8 12  1  0
  9 13  1  0
 10 14  1  0
 16 17  1  0
M  END
> <minimizedAffinity>
-4.67296

> <CNNscore>
0.4856444299

> <CNNaffinity>
2.5170600414

> <CNN_VS>
1.2223961353

> <CNNaffinity_variance>
0.3761366308

$$$$
