@<TRIPOS>MOLECULE
UD1
 46 48 0 0 0
SMALL
GASTEIGER

@<TRIPOS>ATOM
      1 P          21.7420   70.8553   -2.5692 P.3     1  UNL1        0.2189
      2 O          23.2095   70.9873   -2.7015 O.2     1  UNL1       -0.5170
      3 O          21.3206   69.3154   -2.7785 O.3     1  UNL1       -0.4371
      4 O          21.0192   71.7647   -3.6843 O.3     1  UNL1       -0.3112
      5 C          19.9763   72.4813   -3.0216 C.3     1  UNL1        0.1811
      6 C          17.9358   71.3528   -5.7584 C.3     1  UNL1        0.2383
      7 C          18.0279   70.1292   -4.8126 C.3     1  UNL1        0.1895
      8 O          16.8461   69.3315   -4.8923 O.3     1  UNL1       -0.3779
      9 C          18.1484   70.8022   -3.4205 C.3     1  UNL1        0.1713
     10 C          18.6477   72.2257   -3.7348 C.3     1  UNL1        0.1764
     11 O          18.8322   72.3118   -5.1581 O.3     1  UNL1       -0.3308
     12 O          16.8751   70.8432   -2.7727 O.3     1  UNL1       -0.3794
     13 H          16.9670   68.5900   -4.2832 H       1  UNL1        0.2106
     14 H          16.5904   69.9268   -2.6581 H       1  UNL1        0.2105
     15 N          18.3833   71.0018   -7.1068 N.ar    1  UNL1       -0.2551
     16 C          17.4801   70.6476   -8.0374 C.ar    1  UNL1        0.3323
     17 N          17.8627   70.3235   -9.2868 N.ar    1  UNL1       -0.2743
     18 C          19.1682   70.3405   -9.6235 C.ar    1  UNL1        0.2626
     19 C          20.1301   70.7058   -8.6519 C.ar    1  UNL1        0.0795
     20 C          19.7183   71.0313   -7.4078 C.ar    1  UNL1        0.0869
     21 O          16.2989   70.6275   -7.7490 O.2     1  UNL1       -0.2464
     22 O          19.5157   70.0431  -10.7514 O.2     1  UNL1       -0.2670
     23 H          17.1972   70.0750   -9.9467 H       1  UNL1        0.1734
     24 O          21.2891   71.3422   -1.1041 O.3     1  UNL1       -0.2703
     25 P          22.3459   70.7222   -0.0609 P.3     1  UNL1        0.2208
     26 O          23.5297   70.2243   -0.7954 O.2     1  UNL1       -0.5170
     27 O          21.6604   69.5047    0.7390 O.3     1  UNL1       -0.4371
     28 O          22.8014   71.8593    0.9831 O.3     1  UNL1       -0.2865
     29 C          21.9442   72.9827    0.7726 C.3     1  UNL1        0.2611
     30 C          22.7951   74.2188    0.4762 C.3     1  UNL1        0.1582
     31 C          23.7392   74.4723    1.6569 C.3     1  UNL1        0.1625
     32 C          22.9080   74.5459    2.9421 C.3     1  UNL1        0.1686
     33 C          22.0507   73.2834    3.0540 C.3     1  UNL1        0.1760
     34 O          24.4321   75.7062    1.4596 O.3     1  UNL1       -0.3801
     35 O          23.7797   74.6349    4.0707 O.3     1  UNL1       -0.3794
     36 O          21.1595   73.2057    1.9422 O.3     1  UNL1       -0.3263
     37 H          25.0134   75.8254    2.2233 H       1  UNL1        0.2105
     38 H          23.2166   74.6782    4.8564 H       1  UNL1        0.2105
     39 C          23.1802   74.5293   -1.9091 C.2     1  UNL1        0.2231
     40 C          23.9879   74.2966   -3.1604 C.3     1  UNL1        0.0946
     41 N          23.5796   73.9935   -0.7396 N.am    1  UNL1       -0.2994
     42 O          22.1702   75.1985   -1.9551 O.2     1  UNL1       -0.2751
     43 H          24.3878   73.4577   -0.7026 H       1  UNL1        0.1496
     44 C          21.2405   73.3320    4.3511 C.3     1  UNL1        0.1693
     45 O          21.9339   72.6136    5.3735 O.3     1  UNL1       -0.3794
     46 H          21.3908   72.6685    6.1714 H       1  UNL1        0.2105
@<TRIPOS>BOND
     1    29    30    1
     2    29    28    1
     3    29    36    1
     4    30    31    1
     5    30    41    1
     6    31    32    1
     7    31    34    1
     8    32    33    1
     9    32    35    1
    10    33    44    1
    11    33    36    1
    12    44    45    1
    13    39    40    1
    14    39    41   am
    15    39    42    2
    16    41    43    1
    17    28    25    1
    18    34    37    1
    19    35    38    1
    20    45    46    1
    21    15    16   ar
    22    15    20   ar
    23    15     6    1
    24    16    17   ar
    25    16    21    2
    26    17    18   ar
    27    17    23    1
    28    18    19   ar
    29    18    22    2
    30    19    20   ar
    31     6     7    1
    32     6    11    1
    33     7     8    1
    34     7     9    1
    35     8    13    1
    36     9    10    1
    37     9    12    1
    38    10    11    1
    39    10     5    1
    40    12    14    1
    41     5     4    1
    42     4     1    1
    43     1     2    2
    44     1     3    1
    45     1    24    1
    46    24    25    1
    47    25    26    2
    48    25    27    1
@<TRIPOS>MOLECULE
UD1
 46 48 0 0 0
SMALL
GASTEIGER

@<TRIPOS>ATOM
      1 P          22.8468   71.8228   -3.3288 P.3     1  UNL1        0.2189
      2 O          23.4758   70.4877   -3.2267 O.2     1  UNL1       -0.5170
      3 O          23.8334   72.8222   -4.1165 O.3     1  UNL1       -0.4371
      4 O          22.5691   72.3989   -1.8510 O.3     1  UNL1       -0.3112
      5 C          21.2723   71.9408   -1.4651 C.3     1  UNL1        0.1811
      6 C          20.5463   74.0952    1.3204 C.3     1  UNL1        0.2383
      7 C          21.5818   74.8833    0.4797 C.3     1  UNL1        0.1895
      8 O          21.3766   76.2910    0.6047 O.3     1  UNL1       -0.3779
      9 C          21.2647   74.4036   -0.9606 C.3     1  UNL1        0.1713
     10 C          20.5220   73.0691   -0.7558 C.3     1  UNL1        0.1764
     11 O          20.4789   72.8141    0.6585 O.3     1  UNL1       -0.3308
     12 O          20.4298   75.3505   -1.6309 O.3     1  UNL1       -0.3794
     13 H          22.0503   76.7217    0.0606 H       1  UNL1        0.2106
     14 H          20.9262   76.1786   -1.6748 H       1  UNL1        0.2105
     15 N          21.0079   73.9395    2.7003 N.ar    1  UNL1       -0.2551
     16 C          21.3284   72.7183    3.1619 C.ar    1  UNL1        0.3323
     17 N          21.7595   72.5460    4.4255 N.ar    1  UNL1       -0.2743
     18 C          21.8686   73.6024    5.2562 C.ar    1  UNL1        0.2626
     19 C          21.5288   74.8930    4.7850 C.ar    1  UNL1        0.0795
     20 C          21.1042   75.0380    3.5114 C.ar    1  UNL1        0.0869
     21 O          21.2354   71.7557    2.4248 O.2     1  UNL1       -0.2464
     22 O          22.2537   73.4472    6.4003 O.2     1  UNL1       -0.2670
     23 H          21.9909   71.6586    4.7403 H       1  UNL1        0.1734
     24 O          21.4553   71.7009   -4.1273 O.3     1  UNL1       -0.2703
     25 P          21.4374   72.8876   -5.2140 P.3     1  UNL1        0.2208
     26 O          22.6832   72.8453   -6.0108 O.2     1  UNL1       -0.5170
     27 O          21.3318   74.3058   -4.4593 O.3     1  UNL1       -0.4371
     28 O          20.1702   72.7047   -6.1893 O.3     1  UNL1       -0.2865
     29 C          20.3265   71.4422   -6.8396 C.3     1  UNL1        0.2611
     30 C          20.2938   71.6473   -8.3551 C.3     1  UNL1        0.1582
     31 C          18.9603   72.2953   -8.7446 C.3     1  UNL1        0.1625
     32 C          17.8183   71.4458   -8.1769 C.3     1  UNL1        0.1686
     33 C          18.0362   71.2585   -6.6739 C.3     1  UNL1        0.1760
     34 O          18.8549   72.3553  -10.1683 O.3     1  UNL1       -0.3801
     35 O          16.5725   72.1084   -8.4017 O.3     1  UNL1       -0.3794
     36 O          19.2668   70.5725   -6.4470 O.3     1  UNL1       -0.3263
     37 H          18.0038   72.7688  -10.3682 H       1  UNL1        0.2105
     38 H          15.8827   71.5411   -8.0290 H       1  UNL1        0.2105
     39 C          21.1959   73.8449   -8.8946 C.2     1  UNL1        0.2231
     40 C          22.3338   74.7435   -9.3070 C.3     1  UNL1        0.0946
     41 N          21.3990   72.5207   -8.7553 N.am    1  UNL1       -0.2994
     42 O          20.0969   74.3140   -8.6888 O.2     1  UNL1       -0.2751
     43 H          22.2783   72.1451   -8.9201 H       1  UNL1        0.1496
     44 C          16.8834   70.4385   -6.0911 C.3     1  UNL1        0.1693
     45 O          16.6388   70.8499   -4.7446 O.3     1  UNL1       -0.3794
     46 H          15.9075   70.3099   -4.4155 H       1  UNL1        0.2105
@<TRIPOS>BOND
     1    29    30    1
     2    29    28    1
     3    29    36    1
     4    30    31    1
     5    30    41    1
     6    31    32    1
     7    31    34    1
     8    32    33    1
     9    32    35    1
    10    33    44    1
    11    33    36    1
    12    44    45    1
    13    39    40    1
    14    39    41   am
    15    39    42    2
    16    41    43    1
    17    28    25    1
    18    34    37    1
    19    35    38    1
    20    45    46    1
    21    15    16   ar
    22    15    20   ar
    23    15     6    1
    24    16    17   ar
    25    16    21    2
    26    17    18   ar
    27    17    23    1
    28    18    19   ar
    29    18    22    2
    30    19    20   ar
    31     6     7    1
    32     6    11    1
    33     7     8    1
    34     7     9    1
    35     8    13    1
    36     9    10    1
    37     9    12    1
    38    10    11    1
    39    10     5    1
    40    12    14    1
    41     5     4    1
    42     4     1    1
    43     1     2    2
    44     1     3    1
    45     1    24    1
    46    24    25    1
    47    25    26    2
    48    25    27    1
@<TRIPOS>MOLECULE
UD1
 46 48 0 0 0
SMALL
GASTEIGER

@<TRIPOS>ATOM
      1 P          21.9612   70.8409   -0.6151 P.3     1  UNL1        0.2189
      2 O          22.7263   70.2964   -1.7583 O.2     1  UNL1       -0.5170
      3 O          21.5392   69.6389    0.3696 O.3     1  UNL1       -0.4371
      4 O          20.6368   71.5779   -1.1588 O.3     1  UNL1       -0.3112
      5 C          20.6928   71.5305   -2.5853 C.3     1  UNL1        0.1811
      6 C          18.2109   71.1882   -5.1642 C.3     1  UNL1        0.2383
      7 C          18.1458   69.8519   -4.3830 C.3     1  UNL1        0.1895
      8 O          16.8255   69.3085   -4.4089 O.3     1  UNL1       -0.3779
      9 C          18.5341   70.2943   -2.9481 C.3     1  UNL1        0.1713
     10 C          19.2771   71.6282   -3.1558 C.3     1  UNL1        0.1764
     11 O          19.3362   71.8711   -4.5717 O.3     1  UNL1       -0.3308
     12 O          17.3642   70.4849   -2.1495 O.3     1  UNL1       -0.3794
     13 H          16.8530   68.4815   -3.9080 H       1  UNL1        0.2106
     14 H          16.9131   69.6312   -2.1068 H       1  UNL1        0.2105
     15 N          18.4454   70.9464   -6.5883 N.ar    1  UNL1       -0.2551
     16 C          17.3997   70.7877   -7.4181 C.ar    1  UNL1        0.3323
     17 N          17.5856   70.5680   -8.7332 N.ar    1  UNL1       -0.2743
     18 C          18.8329   70.4941   -9.2401 C.ar    1  UNL1        0.2626
     19 C          19.9428   70.6534   -8.3767 C.ar    1  UNL1        0.0795
     20 C          19.7276   70.8781   -7.0627 C.ar    1  UNL1        0.0869
     21 O          16.2688   70.8518   -6.9760 O.2     1  UNL1       -0.2464
     22 O          19.0022   70.2908  -10.4281 O.2     1  UNL1       -0.2670
     23 H          16.8198   70.4606   -9.3181 H       1  UNL1        0.1734
     24 O          22.8725   71.8975    0.1861 O.3     1  UNL1       -0.2703
     25 P          21.8940   72.6891    1.1886 P.3     1  UNL1        0.2208
     26 O          20.7906   71.7971    1.6076 O.2     1  UNL1       -0.5170
     27 O          21.2860   73.9782    0.4397 O.3     1  UNL1       -0.4371
     28 O          22.7216   73.1641    2.4848 O.3     1  UNL1       -0.2865
     29 C          22.4727   74.5616    2.6463 C.3     1  UNL1        0.2611
     30 C          23.6291   75.1941    3.4226 C.3     1  UNL1        0.1582
     31 C          23.7532   74.5054    4.7864 C.3     1  UNL1        0.1625
     32 C          22.3916   74.5574    5.4875 C.3     1  UNL1        0.1686
     33 C          21.3289   73.9701    4.5563 C.3     1  UNL1        0.1760
     34 O          24.7295   75.1842    5.5786 O.3     1  UNL1       -0.3801
     35 O          22.4460   73.7945    6.6943 O.3     1  UNL1       -0.3794
     36 O          21.2529   74.7463    3.3612 O.3     1  UNL1       -0.3263
     37 H          24.7752   74.7188    6.4251 H       1  UNL1        0.2105
     38 H          21.5704   73.8534    7.1022 H       1  UNL1        0.2105
     39 C          25.2254   75.9237    1.7333 C.2     1  UNL1        0.2231
     40 C          26.5074   75.7473    0.9602 C.3     1  UNL1        0.0946
     41 N          24.8747   75.0234    2.6718 N.am    1  UNL1       -0.2994
     42 O          24.5089   76.8761    1.5100 O.2     1  UNL1       -0.2751
     43 H          25.4478   74.2611    2.8505 H       1  UNL1        0.1496
     44 C          19.9703   73.9875    5.2598 C.3     1  UNL1        0.1693
     45 O          19.0874   73.0677    4.6144 O.3     1  UNL1       -0.3794
     46 H          18.2451   73.1098    5.0871 H       1  UNL1        0.2105
@<TRIPOS>BOND
     1    29    30    1
     2    29    28    1
     3    29    36    1
     4    30    31    1
     5    30    41    1
     6    31    32    1
     7    31    34    1
     8    32    33    1
     9    32    35    1
    10    33    44    1
    11    33    36    1
    12    44    45    1
    13    39    40    1
    14    39    41   am
    15    39    42    2
    16    41    43    1
    17    28    25    1
    18    34    37    1
    19    35    38    1
    20    45    46    1
    21    15    16   ar
    22    15    20   ar
    23    15     6    1
    24    16    17   ar
    25    16    21    2
    26    17    18   ar
    27    17    23    1
    28    18    19   ar
    29    18    22    2
    30    19    20   ar
    31     6     7    1
    32     6    11    1
    33     7     8    1
    34     7     9    1
    35     8    13    1
    36     9    10    1
    37     9    12    1
    38    10    11    1
    39    10     5    1
    40    12    14    1
    41     5     4    1
    42     4     1    1
    43     1     2    2
    44     1     3    1
    45     1    24    1
    46    24    25    1
    47    25    26    2
    48    25    27    1
@<TRIPOS>MOLECULE
UD1
 46 48 0 0 0
SMALL
GASTEIGER

@<TRIPOS>ATOM
      1 P          22.6101   71.1661   -2.3482 P.3     1  UNL1        0.2189
      2 O          21.9058   72.4143   -1.9811 O.2     1  UNL1       -0.5170
      3 O          23.6411   71.4646   -3.5484 O.3     1  UNL1       -0.4371
      4 O          21.5363   70.0653   -2.8258 O.3     1  UNL1       -0.3112
      5 C          20.7953   70.6483   -3.8988 C.3     1  UNL1        0.1811
      6 C          17.3052   71.1096   -4.6296 C.3     1  UNL1        0.2383
      7 C          17.5854   69.6296   -4.9921 C.3     1  UNL1        0.1895
      8 O          16.4244   68.8242   -4.7857 O.3     1  UNL1       -0.3779
      9 C          18.7050   69.2545   -3.9866 C.3     1  UNL1        0.1713
     10 C          19.3025   70.6117   -3.5680 C.3     1  UNL1        0.1764
     11 O          18.6122   71.6320   -4.3095 O.3     1  UNL1       -0.3308
     12 O          18.1552   68.5729   -2.8570 O.3     1  UNL1       -0.3794
     13 H          16.6643   67.9194   -5.0290 H       1  UNL1        0.2106
     14 H          17.7453   67.7639   -3.1913 H       1  UNL1        0.2105
     15 N          16.7291   71.8235   -5.7697 N.ar    1  UNL1       -0.2551
     16 C          16.9992   71.4103   -7.0202 C.ar    1  UNL1        0.3323
     17 N          16.4799   72.0454   -8.0875 N.ar    1  UNL1       -0.2743
     18 C          15.6824   73.1192   -7.9174 C.ar    1  UNL1        0.2626
     19 C          15.3947   73.5686   -6.6067 C.ar    1  UNL1        0.0795
     20 C          15.9245   72.9097   -5.5538 C.ar    1  UNL1        0.0869
     21 O          17.7167   70.4433   -7.1898 O.2     1  UNL1       -0.2464
     22 O          15.2162   73.6971   -8.8818 O.2     1  UNL1       -0.2670
     23 H          16.6815   71.7307   -8.9822 H       1  UNL1        0.1734
     24 O          23.4170   70.6100   -1.0721 O.3     1  UNL1       -0.2703
     25 P          22.4030   70.6587    0.1764 P.3     1  UNL1        0.2208
     26 O          22.9038   69.7764    1.2532 O.2     1  UNL1       -0.5170
     27 O          20.9471   70.1571   -0.2937 O.3     1  UNL1       -0.4371
     28 O          22.2975   72.1682    0.7252 O.3     1  UNL1       -0.2865
     29 C          21.0429   72.2772    1.3999 C.3     1  UNL1        0.2611
     30 C          20.4313   73.6491    1.1103 C.3     1  UNL1        0.1582
     31 C          21.3980   74.7393    1.5860 C.3     1  UNL1        0.1625
     32 C          21.7471   74.4780    3.0550 C.3     1  UNL1        0.1686
     33 C          22.2624   73.0443    3.1973 C.3     1  UNL1        0.1760
     34 O          20.7763   76.0194    1.4585 O.3     1  UNL1       -0.3801
     35 O          22.7587   75.3950    3.4762 O.3     1  UNL1       -0.3794
     36 O          21.2447   72.1248    2.8032 O.3     1  UNL1       -0.3263
     37 H          21.4179   76.6737    1.7676 H       1  UNL1        0.2105
     38 H          22.9485   75.1953    4.4039 H       1  UNL1        0.2105
     39 C          19.0661   74.3538   -0.7801 C.2     1  UNL1        0.2231
     40 C          18.8314   74.4979   -2.2622 C.3     1  UNL1        0.0946
     41 N          20.2031   73.7897   -0.3293 N.am    1  UNL1       -0.2994
     42 O          18.2307   74.7451    0.0068 O.2     1  UNL1       -0.2751
     43 H          20.8716   73.4763   -0.9589 H       1  UNL1        0.1496
     44 C          22.6447   72.7835    4.6557 C.3     1  UNL1        0.1693
     45 O          21.4744   72.8448    5.4735 O.3     1  UNL1       -0.3794
     46 H          21.7587   72.6758    6.3820 H       1  UNL1        0.2105
@<TRIPOS>BOND
     1    29    30    1
     2    29    28    1
     3    29    36    1
     4    30    31    1
     5    30    41    1
     6    31    32    1
     7    31    34    1
     8    32    33    1
     9    32    35    1
    10    33    44    1
    11    33    36    1
    12    44    45    1
    13    39    40    1
    14    39    41   am
    15    39    42    2
    16    41    43    1
    17    28    25    1
    18    34    37    1
    19    35    38    1
    20    45    46    1
    21    15    16   ar
    22    15    20   ar
    23    15     6    1
    24    16    17   ar
    25    16    21    2
    26    17    18   ar
    27    17    23    1
    28    18    19   ar
    29    18    22    2
    30    19    20   ar
    31     6     7    1
    32     6    11    1
    33     7     8    1
    34     7     9    1
    35     8    13    1
    36     9    10    1
    37     9    12    1
    38    10    11    1
    39    10     5    1
    40    12    14    1
    41     5     4    1
    42     4     1    1
    43     1     2    2
    44     1     3    1
    45     1    24    1
    46    24    25    1
    47    25    26    2
    48    25    27    1
@<TRIPOS>MOLECULE
UD1
 46 48 0 0 0
SMALL
GASTEIGER

@<TRIPOS>ATOM
      1 P          23.2573   74.2556   -3.8352 P.3     1  UNL1        0.2189
      2 O          24.0128   72.9909   -3.9718 O.2     1  UNL1       -0.5170
      3 O          23.8129   75.3301   -4.8979 O.3     1  UNL1       -0.4371
      4 O          23.4428   74.8324   -2.3434 O.3     1  UNL1       -0.3112
      5 C          22.4485   74.2066   -1.5310 C.3     1  UNL1        0.1811
      6 C          23.0198   72.4062    1.5283 C.3     1  UNL1        0.2383
      7 C          21.8925   71.6160    0.8177 C.3     1  UNL1        0.1895
      8 O          21.9597   70.2268    1.1413 O.3     1  UNL1       -0.3779
      9 C          22.2230   71.8521   -0.6791 C.3     1  UNL1        0.1713
     10 C          23.0990   73.1199   -0.6736 C.3     1  UNL1        0.1764
     11 O          23.1991   73.5670    0.6893 O.3     1  UNL1       -0.3308
     12 O          22.9444   70.7401   -1.2136 O.3     1  UNL1       -0.3794
     13 H          21.2344   69.7939    0.6700 H       1  UNL1        0.2106
     14 H          22.3674   69.9688   -1.1344 H       1  UNL1        0.2105
     15 N          22.6072   72.8017    2.8754 N.ar    1  UNL1       -0.2551
     16 C          21.3240   72.6563    3.2488 C.ar    1  UNL1        0.3323
     17 N          20.9171   73.0080    4.4829 N.ar    1  UNL1       -0.2743
     18 C          21.7951   73.5240    5.3666 C.ar    1  UNL1        0.2626
     19 C          23.1479   73.6881    4.9845 C.ar    1  UNL1        0.0795
     20 C          23.5301   73.3220    3.7423 C.ar    1  UNL1        0.0869
     21 O          20.5202   72.1923    2.4631 O.2     1  UNL1       -0.2464
     22 O          21.4273   73.8468    6.4810 O.2     1  UNL1       -0.2670
     23 H          19.9886   72.8918    4.7369 H       1  UNL1        0.1734
     24 O          21.6966   73.9812   -4.1141 O.3     1  UNL1       -0.2703
     25 P          21.6055   72.5905   -4.9184 P.3     1  UNL1        0.2208
     26 O          22.2540   71.5206   -4.1287 O.2     1  UNL1       -0.5170
     27 O          22.3547   72.7395   -6.3357 O.3     1  UNL1       -0.4371
     28 O          20.0608   72.2129   -5.1667 O.3     1  UNL1       -0.2865
     29 C          20.0304   70.8485   -5.5894 C.3     1  UNL1        0.2611
     30 C          18.8366   70.6351   -6.5218 C.3     1  UNL1        0.1582
     31 C          17.5474   70.9996   -5.7770 C.3     1  UNL1        0.1625
     32 C          17.4994   70.2096   -4.4649 C.3     1  UNL1        0.1686
     33 C          18.7930   70.4576   -3.6862 C.3     1  UNL1        0.1760
     34 O          16.4170   70.6638   -6.5837 O.3     1  UNL1       -0.3801
     35 O          16.3814   70.6422   -3.6873 O.3     1  UNL1       -0.3794
     36 O          19.9097   70.0015   -4.4486 O.3     1  UNL1       -0.3263
     37 H          15.6301   70.9095   -6.0781 H       1  UNL1        0.2105
     38 H          16.3894   70.1210   -2.8719 H       1  UNL1        0.2105
     39 C          19.6819   71.0561   -8.7673 C.2     1  UNL1        0.2231
     40 C          19.8285   71.9355   -9.9829 C.3     1  UNL1        0.0946
     41 N          18.9788   71.4888   -7.7031 N.am    1  UNL1       -0.2994
     42 O          20.1977   69.9590   -8.7470 O.2     1  UNL1       -0.2751
     43 H          18.5662   72.3669   -7.7190 H       1  UNL1        0.1496
     44 C          18.7412   69.6986   -2.3586 C.3     1  UNL1        0.1693
     45 O          18.2508   68.3755   -2.5848 O.3     1  UNL1       -0.3794
     46 H          18.2336   67.9328   -1.7256 H       1  UNL1        0.2105
@<TRIPOS>BOND
     1    29    30    1
     2    29    28    1
     3    29    36    1
     4    30    31    1
     5    30    41    1
     6    31    32    1
     7    31    34    1
     8    32    33    1
     9    32    35    1
    10    33    44    1
    11    33    36    1
    12    44    45    1
    13    39    40    1
    14    39    41   am
    15    39    42    2
    16    41    43    1
    17    28    25    1
    18    34    37    1
    19    35    38    1
    20    45    46    1
    21    15    16   ar
    22    15    20   ar
    23    15     6    1
    24    16    17   ar
    25    16    21    2
    26    17    18   ar
    27    17    23    1
    28    18    19   ar
    29    18    22    2
    30    19    20   ar
    31     6     7    1
    32     6    11    1
    33     7     8    1
    34     7     9    1
    35     8    13    1
    36     9    10    1
    37     9    12    1
    38    10    11    1
    39    10     5    1
    40    12    14    1
    41     5     4    1
    42     4     1    1
    43     1     2    2
    44     1     3    1
    45     1    24    1
    46    24    25    1
    47    25    26    2
    48    25    27    1
@<TRIPOS>MOLECULE
UD1
 46 48 0 0 0
SMALL
GASTEIGER

@<TRIPOS>ATOM
      1 P          22.0323   71.7220   -3.0789 P.3     1  UNL1        0.2189
      2 O          22.6967   70.4505   -3.4401 O.2     1  UNL1       -0.5170
      3 O          23.1006   72.7082   -2.3871 O.3     1  UNL1       -0.4371
      4 O          20.8313   71.4253   -2.0481 O.3     1  UNL1       -0.3112
      5 C          20.9573   72.3689   -0.9831 C.3     1  UNL1        0.1811
      6 C          23.1091   72.2754    1.8958 C.3     1  UNL1        0.2383
      7 C          22.5956   70.8213    1.7476 C.3     1  UNL1        0.1895
      8 O          23.5670   69.8858    2.2173 O.3     1  UNL1       -0.3779
      9 C          22.4052   70.6980    0.2134 C.3     1  UNL1        0.1713
     10 C          22.2928   72.1573   -0.2683 C.3     1  UNL1        0.1764
     11 O          22.3641   73.0003    0.8943 O.3     1  UNL1       -0.3308
     12 O          23.5341   70.0537   -0.3807 O.3     1  UNL1       -0.3794
     13 H          23.1874   69.0042    2.0983 H       1  UNL1        0.2106
     14 H          23.5853   69.1687    0.0044 H       1  UNL1        0.2105
     15 N          22.8181   72.7953    3.2324 N.ar    1  UNL1       -0.2551
     16 C          21.5847   72.6541    3.7483 C.ar    1  UNL1        0.3323
     17 N          21.2898   73.1190    4.9767 N.ar    1  UNL1       -0.2743
     18 C          22.2315   73.7462    5.7101 C.ar    1  UNL1        0.2626
     19 C          23.5325   73.9069    5.1767 C.ar    1  UNL1        0.0795
     20 C          23.8026   73.4263    3.9441 C.ar    1  UNL1        0.0869
     21 O          20.7246   72.0907    3.0991 O.2     1  UNL1       -0.2464
     22 O          21.9647   74.1712    6.8190 O.2     1  UNL1       -0.2670
     23 H          20.3962   73.0043    5.3351 H       1  UNL1        0.1734
     24 O          21.4416   72.4147   -4.4056 O.3     1  UNL1       -0.2703
     25 P          20.0061   71.7421   -4.6814 P.3     1  UNL1        0.2208
     26 O          19.0324   72.2297   -3.6799 O.2     1  UNL1       -0.5170
     27 O          20.1326   70.1409   -4.5705 O.3     1  UNL1       -0.4371
     28 O          19.5012   72.1380   -6.1575 O.3     1  UNL1       -0.2865
     29 C          20.6687   72.3967   -6.9394 C.3     1  UNL1        0.2611
     30 C          20.6750   73.8654   -7.3669 C.3     1  UNL1        0.1582
     31 C          19.4063   74.1573   -8.1761 C.3     1  UNL1        0.1625
     32 C          19.3124   73.1449   -9.3225 C.3     1  UNL1        0.1686
     33 C          19.4058   71.7302   -8.7469 C.3     1  UNL1        0.1760
     34 O          19.4712   75.4822   -8.7071 O.3     1  UNL1       -0.3801
     35 O          18.0649   73.3050  -10.0005 O.3     1  UNL1       -0.3794
     36 O          20.6622   71.5580   -8.0926 O.3     1  UNL1       -0.3263
     37 H          18.6554   75.6231   -9.2070 H       1  UNL1        0.2105
     38 H          18.0471   72.6495  -10.7122 H       1  UNL1        0.2105
     39 C          21.8588   75.3096   -5.8026 C.2     1  UNL1        0.2231
     40 C          21.8914   76.1902   -4.5796 C.3     1  UNL1        0.0946
     41 N          20.7071   74.7213   -6.1792 N.am    1  UNL1       -0.2994
     42 O          22.8697   75.1301   -6.4475 O.2     1  UNL1       -0.2751
     43 H          19.8980   74.8647   -5.6631 H       1  UNL1        0.1496
     44 C          19.2803   70.7104   -9.8806 C.3     1  UNL1        0.1693
     45 O          19.5874   69.4059   -9.3846 O.3     1  UNL1       -0.3794
     46 H          19.4970   68.7951  -10.1285 H       1  UNL1        0.2105
@<TRIPOS>BOND
     1    29    30    1
     2    29    28    1
     3    29    36    1
     4    30    31    1
     5    30    41    1
     6    31    32    1
     7    31    34    1
     8    32    33    1
     9    32    35    1
    10    33    44    1
    11    33    36    1
    12    44    45    1
    13    39    40    1
    14    39    41   am
    15    39    42    2
    16    41    43    1
    17    28    25    1
    18    34    37    1
    19    35    38    1
    20    45    46    1
    21    15    16   ar
    22    15    20   ar
    23    15     6    1
    24    16    17   ar
    25    16    21    2
    26    17    18   ar
    27    17    23    1
    28    18    19   ar
    29    18    22    2
    30    19    20   ar
    31     6     7    1
    32     6    11    1
    33     7     8    1
    34     7     9    1
    35     8    13    1
    36     9    10    1
    37     9    12    1
    38    10    11    1
    39    10     5    1
    40    12    14    1
    41     5     4    1
    42     4     1    1
    43     1     2    2
    44     1     3    1
    45     1    24    1
    46    24    25    1
    47    25    26    2
    48    25    27    1
@<TRIPOS>MOLECULE
UD1
 46 48 0 0 0
SMALL
GASTEIGER

@<TRIPOS>ATOM
      1 P          18.8941   69.2495   -3.3588 P.3     1  UNL1        0.2189
      2 O          18.8127   67.7862   -3.5606 O.2     1  UNL1       -0.5170
      3 O          19.1261   69.5639   -1.7968 O.3     1  UNL1       -0.4371
      4 O          17.5204   69.9349   -3.8449 O.3     1  UNL1       -0.3112
      5 C          17.3826   71.1521   -3.1101 C.3     1  UNL1        0.1811
      6 C          17.6721   72.6827   -6.3506 C.3     1  UNL1        0.2383
      7 C          16.1523   72.4437   -6.1686 C.3     1  UNL1        0.1895
      8 O          15.3925   73.4385   -6.8558 O.3     1  UNL1       -0.3779
      9 C          15.9827   72.5806   -4.6331 C.3     1  UNL1        0.1713
     10 C          17.3990   72.3371   -4.0769 C.3     1  UNL1        0.1764
     11 O          18.2550   72.0447   -5.1944 O.3     1  UNL1       -0.3308
     12 O          15.5240   73.8914   -4.2953 O.3     1  UNL1       -0.3794
     13 H          14.4596   73.2332   -6.7038 H       1  UNL1        0.2106
     14 H          14.6635   74.0044   -4.7204 H       1  UNL1        0.2105
     15 N          18.1525   72.0563   -7.5828 N.ar    1  UNL1       -0.2551
     16 C          17.8244   70.7811   -7.8537 C.ar    1  UNL1        0.3323
     17 N          18.2489   70.1807   -8.9814 N.ar    1  UNL1       -0.2743
     18 C          19.0229   70.8515   -9.8583 C.ar    1  UNL1        0.2626
     19 C          19.3807   72.1927   -9.5826 C.ar    1  UNL1        0.0795
     20 C          18.9368   72.7722   -8.4466 C.ar    1  UNL1        0.0869
     21 O          17.1270   70.1629   -7.0726 O.2     1  UNL1       -0.2464
     22 O          19.4112   70.3082  -10.8758 O.2     1  UNL1       -0.2670
     23 H          17.9987   69.2617   -9.1631 H       1  UNL1        0.1734
     24 O          20.1212   69.8418   -4.2145 O.3     1  UNL1       -0.2703
     25 P          21.1006   70.5802   -3.1729 P.3     1  UNL1        0.2208
     26 O          22.4326   69.9372   -3.2077 O.2     1  UNL1       -0.5170
     27 O          20.4894   70.4669   -1.6877 O.3     1  UNL1       -0.4371
     28 O          21.2433   72.1319   -3.5760 O.3     1  UNL1       -0.2865
     29 C          22.6384   72.3900   -3.7438 C.3     1  UNL1        0.2611
     30 C          23.0293   73.6131   -2.9126 C.3     1  UNL1        0.1582
     31 C          22.1975   74.8167   -3.3700 C.3     1  UNL1        0.1625
     32 C          22.3615   74.9784   -4.8850 C.3     1  UNL1        0.1686
     33 C          22.0179   73.6528   -5.5677 C.3     1  UNL1        0.1760
     34 O          22.6567   75.9959   -2.7067 O.3     1  UNL1       -0.3801
     35 O          21.4815   76.0016   -5.3544 O.3     1  UNL1       -0.3794
     36 O          22.9127   72.6346   -5.1216 O.3     1  UNL1       -0.3263
     37 H          22.1071   76.7262   -3.0230 H       1  UNL1        0.2105
     38 H          21.6163   76.0696   -6.3102 H       1  UNL1        0.2105
     39 C          21.6024   73.7282   -0.9415 C.2     1  UNL1        0.2231
     40 C          21.3350   73.4541    0.5164 C.3     1  UNL1        0.0946
     41 N          22.7689   73.3466   -1.4964 N.am    1  UNL1       -0.2994
     42 O          20.7674   74.2931   -1.6153 O.2     1  UNL1       -0.2751
     43 H          23.4373   72.8947   -0.9574 H       1  UNL1        0.1496
     44 C          22.1472   73.8130   -7.0839 C.3     1  UNL1        0.1693
     45 O          23.1552   74.7828   -7.3766 O.3     1  UNL1       -0.3794
     46 H          23.2042   74.8534   -8.3396 H       1  UNL1        0.2105
@<TRIPOS>BOND
     1    29    30    1
     2    29    28    1
     3    29    36    1
     4    30    31    1
     5    30    41    1
     6    31    32    1
     7    31    34    1
     8    32    33    1
     9    32    35    1
    10    33    44    1
    11    33    36    1
    12    44    45    1
    13    39    40    1
    14    39    41   am
    15    39    42    2
    16    41    43    1
    17    28    25    1
    18    34    37    1
    19    35    38    1
    20    45    46    1
    21    15    16   ar
    22    15    20   ar
    23    15     6    1
    24    16    17   ar
    25    16    21    2
    26    17    18   ar
    27    17    23    1
    28    18    19   ar
    29    18    22    2
    30    19    20   ar
    31     6     7    1
    32     6    11    1
    33     7     8    1
    34     7     9    1
    35     8    13    1
    36     9    10    1
    37     9    12    1
    38    10    11    1
    39    10     5    1
    40    12    14    1
    41     5     4    1
    42     4     1    1
    43     1     2    2
    44     1     3    1
    45     1    24    1
    46    24    25    1
    47    25    26    2
    48    25    27    1
@<TRIPOS>MOLECULE
UD1
 46 48 0 0 0
SMALL
GASTEIGER

@<TRIPOS>ATOM
      1 P          21.9691   70.8161   -2.7695 P.3     1  UNL1        0.2189
      2 O          21.5794   69.5696   -2.0744 O.2     1  UNL1       -0.5170
      3 O          23.5088   70.7152   -3.2296 O.3     1  UNL1       -0.4371
      4 O          21.7896   72.0658   -1.7701 O.3     1  UNL1       -0.3112
      5 C          22.4529   71.7211   -0.5530 C.3     1  UNL1        0.1811
      6 C          22.4618   73.8991    2.3077 C.3     1  UNL1        0.2383
      7 C          22.1296   74.8283    1.1134 C.3     1  UNL1        0.1895
      8 O          21.2951   75.9115    1.5252 O.3     1  UNL1       -0.3779
      9 C          21.3659   73.8728    0.1600 C.3     1  UNL1        0.1713
     10 C          21.8007   72.4657    0.6130 C.3     1  UNL1        0.1764
     11 O          22.7506   72.6320    1.6794 O.3     1  UNL1       -0.3308
     12 O          19.9543   74.0397    0.3096 O.3     1  UNL1       -0.3794
     13 H          21.1266   76.4497    0.7394 H       1  UNL1        0.2106
     14 H          19.7542   74.9541    0.0690 H       1  UNL1        0.2105
     15 N          23.6301   74.3908    3.0390 N.ar    1  UNL1       -0.2551
     16 C          23.7858   74.0742    4.3363 C.ar    1  UNL1        0.3323
     17 N          24.8526   74.5092    5.0326 N.ar    1  UNL1       -0.2743
     18 C          25.7833   75.2824    4.4376 C.ar    1  UNL1        0.2626
     19 C          25.6286   75.6281    3.0740 C.ar    1  UNL1        0.0795
     20 C          24.5518   75.1738    2.3978 C.ar    1  UNL1        0.0869
     21 O          22.9551   73.3776    4.8869 O.2     1  UNL1       -0.2464
     22 O          26.7457   75.6802    5.0675 O.2     1  UNL1       -0.2670
     23 H          24.9514   74.2672    5.9664 H       1  UNL1        0.1734
     24 O          21.0342   71.0244   -4.0623 O.3     1  UNL1       -0.2703
     25 P          19.6009   70.3849   -3.7074 P.3     1  UNL1        0.2208
     26 O          19.0889   70.9859   -2.4563 O.2     1  UNL1       -0.5170
     27 O          19.7554   68.7941   -3.5137 O.3     1  UNL1       -0.4371
     28 O          18.5684   70.6802   -4.9063 O.3     1  UNL1       -0.2865
     29 C          19.0020   71.8854   -5.5393 C.3     1  UNL1        0.2611
     30 C          17.8361   72.8741   -5.5954 C.3     1  UNL1        0.1582
     31 C          16.6782   72.2401   -6.3744 C.3     1  UNL1        0.1625
     32 C          17.2021   71.7717   -7.7361 C.3     1  UNL1        0.1686
     33 C          18.4141   70.8635   -7.5183 C.3     1  UNL1        0.1760
     34 O          15.6421   73.2057   -6.5625 O.3     1  UNL1       -0.3801
     35 O          16.1771   71.0475   -8.4191 O.3     1  UNL1       -0.3794
     36 O          19.4503   71.5918   -6.8607 O.3     1  UNL1       -0.3263
     37 H          14.9359   72.7654   -7.0551 H       1  UNL1        0.2105
     38 H          16.5486   70.7712   -9.2689 H       1  UNL1        0.2105
     39 C          16.3559   72.5312   -3.6913 C.2     1  UNL1        0.2231
     40 C          15.9036   72.8582   -2.2910 C.3     1  UNL1        0.0946
     41 N          17.3967   73.1911   -4.2349 N.am    1  UNL1       -0.2994
     42 O          15.7823   71.6742   -4.3290 O.2     1  UNL1       -0.2751
     43 H          17.8557   73.8771   -3.7248 H       1  UNL1        0.1496
     44 C          18.9253   70.3640   -8.8713 C.3     1  UNL1        0.1693
     45 O          20.2638   69.8846   -8.7277 O.3     1  UNL1       -0.3794
     46 H          20.5471   69.5804   -9.6005 H       1  UNL1        0.2105
@<TRIPOS>BOND
     1    29    30    1
     2    29    28    1
     3    29    36    1
     4    30    31    1
     5    30    41    1
     6    31    32    1
     7    31    34    1
     8    32    33    1
     9    32    35    1
    10    33    44    1
    11    33    36    1
    12    44    45    1
    13    39    40    1
    14    39    41   am
    15    39    42    2
    16    41    43    1
    17    28    25    1
    18    34    37    1
    19    35    38    1
    20    45    46    1
    21    15    16   ar
    22    15    20   ar
    23    15     6    1
    24    16    17   ar
    25    16    21    2
    26    17    18   ar
    27    17    23    1
    28    18    19   ar
    29    18    22    2
    30    19    20   ar
    31     6     7    1
    32     6    11    1
    33     7     8    1
    34     7     9    1
    35     8    13    1
    36     9    10    1
    37     9    12    1
    38    10    11    1
    39    10     5    1
    40    12    14    1
    41     5     4    1
    42     4     1    1
    43     1     2    2
    44     1     3    1
    45     1    24    1
    46    24    25    1
    47    25    26    2
    48    25    27    1
@<TRIPOS>MOLECULE
UD1
 46 48 0 0 0
SMALL
GASTEIGER

@<TRIPOS>ATOM
      1 P          21.2835   70.8459   -2.7102 P.3     1  UNL1        0.2189
      2 O          22.6640   70.3409   -2.5436 O.2     1  UNL1       -0.5170
      3 O          21.3283   72.3756   -3.2107 O.3     1  UNL1       -0.4371
      4 O          20.5096   70.7660   -1.3004 O.3     1  UNL1       -0.3112
      5 C          21.4549   71.1174   -0.2888 C.3     1  UNL1        0.1811
      6 C          21.5868   73.9945    1.8634 C.3     1  UNL1        0.2383
      7 C          23.0021   73.9119    1.2386 C.3     1  UNL1        0.1895
      8 O          23.5789   75.2115    1.1060 O.3     1  UNL1       -0.3779
      9 C          22.7083   73.2924   -0.1524 C.3     1  UNL1        0.1713
     10 C          21.3379   72.6100    0.0235 C.3     1  UNL1        0.1764
     11 O          20.9394   72.7933    1.3928 O.3     1  UNL1       -0.3308
     12 O          22.6417   74.3130   -1.1508 O.3     1  UNL1       -0.3794
     13 H          24.4546   75.0907    0.7136 H       1  UNL1        0.2106
     14 H          23.5082   74.7408   -1.1710 H       1  UNL1        0.2105
     15 N          21.6638   74.0007    3.3247 N.ar    1  UNL1       -0.2551
     16 C          21.9281   72.8587    3.9829 C.ar    1  UNL1        0.3323
     17 N          22.0086   72.8357    5.3265 N.ar    1  UNL1       -0.2743
     18 C          21.8149   73.9644    6.0382 C.ar    1  UNL1        0.2626
     19 C          21.5299   75.1725    5.3584 C.ar    1  UNL1        0.0795
     20 C          21.4602   75.1682    4.0099 C.ar    1  UNL1        0.0869
     21 O          22.1053   71.8326    3.3550 O.2     1  UNL1       -0.2464
     22 O          21.8827   73.9438    7.2533 O.2     1  UNL1       -0.2670
     23 H          22.2049   72.0040    5.7846 H       1  UNL1        0.1734
     24 O          20.5107   69.9467   -3.7980 O.3     1  UNL1       -0.2703
     25 P          18.9498   70.3212   -3.6862 P.3     1  UNL1        0.2208
     26 O          18.8000   71.5973   -2.9527 O.2     1  UNL1       -0.5170
     27 O          18.1724   69.1540   -2.8953 O.3     1  UNL1       -0.4371
     28 O          18.3263   70.4744   -5.1622 O.3     1  UNL1       -0.2865
     29 C          18.5550   71.8243   -5.5706 C.3     1  UNL1        0.2611
     30 C          17.2903   72.3722   -6.2343 C.3     1  UNL1        0.1582
     31 C          16.9366   71.4945   -7.4402 C.3     1  UNL1        0.1625
     32 C          18.1632   71.3990   -8.3535 C.3     1  UNL1        0.1686
     33 C          19.3615   70.9215   -7.5305 C.3     1  UNL1        0.1760
     34 O          15.8472   72.0801   -8.1555 O.3     1  UNL1       -0.3801
     35 O          17.9038   70.4688   -9.4066 O.3     1  UNL1       -0.3794
     36 O          19.6405   71.8624   -6.4945 O.3     1  UNL1       -0.3263
     37 H          15.6583   71.4967   -8.9034 H       1  UNL1        0.2105
     38 H          18.6999   70.4389   -9.9559 H       1  UNL1        0.2105
     39 C          15.3347   73.3958   -5.2036 C.2     1  UNL1        0.2231
     40 C          14.1979   73.3767   -4.2139 C.3     1  UNL1        0.0946
     41 N          16.1855   72.3539   -5.2733 N.am    1  UNL1       -0.2994
     42 O          15.4841   74.3497   -5.9371 O.2     1  UNL1       -0.2751
     43 H          16.0663   71.5905   -4.6863 H       1  UNL1        0.1496
     44 C          20.5846   70.7917   -8.4406 C.3     1  UNL1        0.1693
     45 O          21.3318   72.0094   -8.4117 O.3     1  UNL1       -0.3794
     46 H          22.0914   71.8856   -8.9968 H       1  UNL1        0.2105
@<TRIPOS>BOND
     1    29    30    1
     2    29    28    1
     3    29    36    1
     4    30    31    1
     5    30    41    1
     6    31    32    1
     7    31    34    1
     8    32    33    1
     9    32    35    1
    10    33    44    1
    11    33    36    1
    12    44    45    1
    13    39    40    1
    14    39    41   am
    15    39    42    2
    16    41    43    1
    17    28    25    1
    18    34    37    1
    19    35    38    1
    20    45    46    1
    21    15    16   ar
    22    15    20   ar
    23    15     6    1
    24    16    17   ar
    25    16    21    2
    26    17    18   ar
    27    17    23    1
    28    18    19   ar
    29    18    22    2
    30    19    20   ar
    31     6     7    1
    32     6    11    1
    33     7     8    1
    34     7     9    1
    35     8    13    1
    36     9    10    1
    37     9    12    1
    38    10    11    1
    39    10     5    1
    40    12    14    1
    41     5     4    1
    42     4     1    1
    43     1     2    2
    44     1     3    1
    45     1    24    1
    46    24    25    1
    47    25    26    2
    48    25    27    1
@<TRIPOS>MOLECULE
UD1
 46 48 0 0 0
SMALL
GASTEIGER

@<TRIPOS>ATOM
      1 P          18.2789   70.7386   -2.9592 P.3     1  UNL1        0.2189
      2 O          16.9510   71.2553   -2.5611 O.2     1  UNL1       -0.5170
      3 O          18.3155   69.1414   -2.7588 O.3     1  UNL1       -0.4371
      4 O          19.4155   71.4194   -2.0441 O.3     1  UNL1       -0.3112
      5 C          20.1579   72.2977   -2.8913 C.3     1  UNL1        0.1811
      6 C          22.7320   72.3867   -0.3828 C.3     1  UNL1        0.2383
      7 C          22.5957   70.8868   -0.7460 C.3     1  UNL1        0.1895
      8 O          23.8434   70.2089   -0.5952 O.3     1  UNL1       -0.3779
      9 C          22.1768   70.9498   -2.2379 C.3     1  UNL1        0.1713
     10 C          21.6067   72.3714   -2.4069 C.3     1  UNL1        0.1764
     11 O          21.6602   73.0115   -1.1206 O.3     1  UNL1       -0.3308
     12 O          23.3115   70.7549   -3.0848 O.3     1  UNL1       -0.3794
     13 H          23.6908   69.2844   -0.8351 H       1  UNL1        0.2106
     14 H          23.6574   69.8737   -2.8897 H       1  UNL1        0.2105
     15 N          22.5560   72.5909    1.0556 N.ar    1  UNL1       -0.2551
     16 C          21.9392   71.6501    1.7915 C.ar    1  UNL1        0.3323
     17 N          21.7670   71.8095    3.1171 N.ar    1  UNL1       -0.2743
     18 C          22.2057   72.9276    3.7297 C.ar    1  UNL1        0.2626
     19 C          22.8514   73.9288    2.9659 C.ar    1  UNL1        0.0795
     20 C          23.0158   73.7408    1.6388 C.ar    1  UNL1        0.0869
     21 O          21.5380   70.6361    1.2535 O.2     1  UNL1       -0.2464
     22 O          22.0462   73.0749    4.9273 O.2     1  UNL1       -0.2670
     23 H          21.3240   71.1184    3.6333 H       1  UNL1        0.1734
     24 O          18.5513   71.0928   -4.5049 O.3     1  UNL1       -0.2703
     25 P          17.1224   71.0744   -5.2448 P.3     1  UNL1        0.2208
     26 O          16.0953   71.6487   -4.3481 O.2     1  UNL1       -0.5170
     27 O          16.7265   69.5574   -5.6110 O.3     1  UNL1       -0.4371
     28 O          17.2045   71.9468   -6.5949 O.3     1  UNL1       -0.2865
     29 C          18.4676   72.6143   -6.5809 C.3     1  UNL1        0.2611
     30 C          18.2770   74.0652   -7.0264 C.3     1  UNL1        0.1582
     31 C          17.6718   74.0818   -8.4346 C.3     1  UNL1        0.1625
     32 C          18.5491   73.2269   -9.3552 C.3     1  UNL1        0.1686
     33 C          18.7167   71.8380   -8.7354 C.3     1  UNL1        0.1760
     34 O          17.6275   75.4245   -8.9210 O.3     1  UNL1       -0.3801
     35 O          17.9253   73.1085  -10.6353 O.3     1  UNL1       -0.3794
     36 O          19.3644   71.9503   -7.4687 O.3     1  UNL1       -0.3263
     37 H          17.2408   75.3882   -9.8067 H       1  UNL1        0.2105
     38 H          18.5092   72.5634  -11.1816 H       1  UNL1        0.2105
     39 C          17.6142   76.0257   -5.7414 C.2     1  UNL1        0.2231
     40 C          16.6860   76.7287   -4.7840 C.3     1  UNL1        0.0946
     41 N          17.3753   74.7487   -6.0969 N.am    1  UNL1       -0.2994
     42 O          18.5769   76.6096   -6.1913 O.2     1  UNL1       -0.2751
     43 H          16.6050   74.2811   -5.7367 H       1  UNL1        0.1496
     44 C          19.5648   70.9657   -9.6632 C.3     1  UNL1        0.1693
     45 O          18.7089   70.2251  -10.5355 O.3     1  UNL1       -0.3794
     46 H          19.2816   69.6899  -11.1015 H       1  UNL1        0.2105
@<TRIPOS>BOND
     1    29    30    1
     2    29    28    1
     3    29    36    1
     4    30    31    1
     5    30    41    1
     6    31    32    1
     7    31    34    1
     8    32    33    1
     9    32    35    1
    10    33    44    1
    11    33    36    1
    12    44    45    1
    13    39    40    1
    14    39    41   am
    15    39    42    2
    16    41    43    1
    17    28    25    1
    18    34    37    1
    19    35    38    1
    20    45    46    1
    21    15    16   ar
    22    15    20   ar
    23    15     6    1
    24    16    17   ar
    25    16    21    2
    26    17    18   ar
    27    17    23    1
    28    18    19   ar
    29    18    22    2
    30    19    20   ar
    31     6     7    1
    32     6    11    1
    33     7     8    1
    34     7     9    1
    35     8    13    1
    36     9    10    1
    37     9    12    1
    38    10    11    1
    39    10     5    1
    40    12    14    1
    41     5     4    1
    42     4     1    1
    43     1     2    2
    44     1     3    1
    45     1    24    1
    46    24    25    1
    47    25    26    2
    48    25    27    1
@<TRIPOS>MOLECULE
UD1
 46 48 0 0 0
SMALL
GASTEIGER

@<TRIPOS>ATOM
      1 P          19.9343   70.0921   -2.7003 P.3     1  UNL1        0.2189
      2 O          21.0755   69.1992   -2.9989 O.2     1  UNL1       -0.5170
      3 O          18.7113   69.2230   -2.1162 O.3     1  UNL1       -0.4371
      4 O          19.4670   70.8345   -4.0506 O.3     1  UNL1       -0.3112
      5 C          18.0420   70.7482   -4.0985 C.3     1  UNL1        0.1811
      6 C          18.4418   72.3524   -7.2913 C.3     1  UNL1        0.2383
      7 C          18.3213   70.8447   -7.6268 C.3     1  UNL1        0.1895
      8 O          17.7142   70.6525   -8.9049 O.3     1  UNL1       -0.3779
      9 C          17.3968   70.3316   -6.4922 C.3     1  UNL1        0.1713
     10 C          17.5338   71.3966   -5.3871 C.3     1  UNL1        0.1764
     11 O          18.4808   72.3751   -5.8485 O.3     1  UNL1       -0.3308
     12 O          16.0451   70.2458   -6.9486 O.3     1  UNL1       -0.3794
     13 H          17.6693   69.6977   -9.0530 H       1  UNL1        0.2106
     14 H          16.0359   69.6103   -7.6767 H       1  UNL1        0.2105
     15 N          19.6732   72.9120   -7.8498 N.ar    1  UNL1       -0.2551
     16 C          20.6826   72.0924   -8.1913 C.ar    1  UNL1        0.3323
     17 N          21.8252   72.5790   -8.7109 N.ar    1  UNL1       -0.2743
     18 C          21.9791   73.9065   -8.8894 C.ar    1  UNL1        0.2626
     19 C          20.9268   74.7813   -8.5286 C.ar    1  UNL1        0.0795
     20 C          19.7895   74.2660   -8.0145 C.ar    1  UNL1        0.0869
     21 O          20.5588   70.8927   -8.0364 O.2     1  UNL1       -0.2464
     22 O          23.0136   74.3480   -9.3546 O.2     1  UNL1       -0.2670
     23 H          22.5411   71.9728   -8.9560 H       1  UNL1        0.1734
     24 O          20.3820   71.1896   -1.6122 O.3     1  UNL1       -0.2703
     25 P          21.8325   70.7465   -1.0746 P.3     1  UNL1        0.2208
     26 O          22.7746   70.6597   -2.2120 O.2     1  UNL1       -0.5170
     27 O          21.7239   69.3089   -0.3579 O.3     1  UNL1       -0.4371
     28 O          22.3687   71.8334   -0.0155 O.3     1  UNL1       -0.2865
     29 C          21.2298   72.5670    0.4381 C.3     1  UNL1        0.2611
     30 C          21.4473   74.0565    0.1658 C.3     1  UNL1        0.1582
     31 C          22.7142   74.5194    0.8939 C.3     1  UNL1        0.1625
     32 C          22.5967   74.1374    2.3732 C.3     1  UNL1        0.1686
     33 C          22.2954   72.6410    2.4790 C.3     1  UNL1        0.1760
     34 O          22.8464   75.9368    0.7709 O.3     1  UNL1       -0.3801
     35 O          23.8262   74.4273    3.0408 O.3     1  UNL1       -0.3794
     36 O          21.0542   72.3524    1.8368 O.3     1  UNL1       -0.3263
     37 H          23.6542   76.1839    1.2417 H       1  UNL1        0.2105
     38 H          23.7088   74.1715    3.9667 H       1  UNL1        0.2105
     39 C          22.8317   74.3175   -1.8216 C.2     1  UNL1        0.2231
     40 C          22.9903   74.5418   -3.3037 C.3     1  UNL1        0.0946
     41 N          21.6018   74.2738   -1.2741 N.am    1  UNL1       -0.2994
     42 O          23.8116   74.1771   -1.1214 O.2     1  UNL1       -0.2751
     43 H          20.8175   74.3864   -1.8342 H       1  UNL1        0.1496
     44 C          22.2082   72.2426    3.9538 C.3     1  UNL1        0.1693
     45 O          21.1114   72.9229    4.5673 O.3     1  UNL1       -0.3794
     46 H          21.0922   72.6449    5.4930 H       1  UNL1        0.2105
@<TRIPOS>BOND
     1    29    30    1
     2    29    28    1
     3    29    36    1
     4    30    31    1
     5    30    41    1
     6    31    32    1
     7    31    34    1
     8    32    33    1
     9    32    35    1
    10    33    44    1
    11    33    36    1
    12    44    45    1
    13    39    40    1
    14    39    41   am
    15    39    42    2
    16    41    43    1
    17    28    25    1
    18    34    37    1
    19    35    38    1
    20    45    46    1
    21    15    16   ar
    22    15    20   ar
    23    15     6    1
    24    16    17   ar
    25    16    21    2
    26    17    18   ar
    27    17    23    1
    28    18    19   ar
    29    18    22    2
    30    19    20   ar
    31     6     7    1
    32     6    11    1
    33     7     8    1
    34     7     9    1
    35     8    13    1
    36     9    10    1
    37     9    12    1
    38    10    11    1
    39    10     5    1
    40    12    14    1
    41     5     4    1
    42     4     1    1
    43     1     2    2
    44     1     3    1
    45     1    24    1
    46    24    25    1
    47    25    26    2
    48    25    27    1
@<TRIPOS>MOLECULE
UD1
 46 48 0 0 0
SMALL
GASTEIGER

@<TRIPOS>ATOM
      1 P          21.1111   70.9098   -2.5049 P.3     1  UNL1        0.2189
      2 O          20.5070   69.8758   -1.6362 O.2     1  UNL1       -0.5170
      3 O          22.3741   70.2851   -3.2843 O.3     1  UNL1       -0.4371
      4 O          21.5992   72.1504   -1.6019 O.3     1  UNL1       -0.3112
      5 C          20.8167   72.1257   -0.4071 C.3     1  UNL1        0.1811
      6 C          23.1692   73.8084    1.7287 C.3     1  UNL1        0.2383
      7 C          21.7855   74.1259    2.3491 C.3     1  UNL1        0.1895
      8 O          21.8850   74.2881    3.7644 O.3     1  UNL1       -0.3779
      9 C          20.9701   72.8555    1.9937 C.3     1  UNL1        0.1713
     10 C          21.7375   72.2373    0.8090 C.3     1  UNL1        0.1764
     11 O          22.8401   73.1100    0.5091 O.3     1  UNL1       -0.3308
     12 O          20.9388   71.9545    3.1027 O.3     1  UNL1       -0.3794
     13 H          20.9945   74.4832    4.0873 H       1  UNL1        0.2106
     14 H          20.5009   72.4195    3.8280 H       1  UNL1        0.2105
     15 N          23.9023   75.0407    1.4361 N.ar    1  UNL1       -0.2551
     16 C          24.7902   75.5152    2.3271 C.ar    1  UNL1        0.3323
     17 N          25.4815   76.6442    2.0827 N.ar    1  UNL1       -0.2743
     18 C          25.2858   77.3261    0.9361 C.ar    1  UNL1        0.2626
     19 C          24.3497   76.8409   -0.0079 C.ar    1  UNL1        0.0795
     20 C          23.6737   75.7032    0.2603 C.ar    1  UNL1        0.0869
     21 O          24.9778   74.9114    3.3658 O.2     1  UNL1       -0.2464
     22 O          25.9068   78.3494    0.7162 O.2     1  UNL1       -0.2670
     23 H          26.1215   76.9694    2.7345 H       1  UNL1        0.1734
     24 O          20.0196   71.4193   -3.5716 O.3     1  UNL1       -0.2703
     25 P          20.7682   72.4640   -4.5399 P.3     1  UNL1        0.2208
     26 O          22.1726   72.0399   -4.7311 O.2     1  UNL1       -0.5170
     27 O          20.7368   73.9302   -3.8755 O.3     1  UNL1       -0.4371
     28 O          20.0218   72.5062   -5.9652 O.3     1  UNL1       -0.2865
     29 C          20.1410   71.2013   -6.5344 C.3     1  UNL1        0.2611
     30 C          20.1455   71.3142   -8.0600 C.3     1  UNL1        0.1582
     31 C          18.8462   71.9870   -8.5166 C.3     1  UNL1        0.1625
     32 C          17.6611   71.2177   -7.9232 C.3     1  UNL1        0.1686
     33 C          17.8426   71.1148   -6.4074 C.3     1  UNL1        0.1760
     34 O          18.7705   71.9635   -9.9432 O.3     1  UNL1       -0.3801
     35 O          16.4467   71.9119   -8.2145 O.3     1  UNL1       -0.3794
     36 O          19.0409   70.3980   -6.1128 O.3     1  UNL1       -0.3263
     37 H          17.9402   72.3960  -10.1861 H       1  UNL1        0.2105
     38 H          15.7282   71.3950   -7.8231 H       1  UNL1        0.2105
     39 C          21.1511   73.4449   -8.6788 C.2     1  UNL1        0.2231
     40 C          22.3309   74.2729   -9.1202 C.3     1  UNL1        0.0946
     41 N          21.2915   72.1190   -8.4883 N.am    1  UNL1       -0.2994
     42 O          20.0748   73.9725   -8.4958 O.2     1  UNL1       -0.2751
     43 H          22.1527   71.6965   -8.6349 H       1  UNL1        0.1496
     44 C          16.6477   70.3762   -5.8009 C.3     1  UNL1        0.1693
     45 O          16.1664   69.4036   -6.7308 O.3     1  UNL1       -0.3794
     46 H          15.4157   68.9624   -6.3108 H       1  UNL1        0.2105
@<TRIPOS>BOND
     1    29    30    1
     2    29    28    1
     3    29    36    1
     4    30    31    1
     5    30    41    1
     6    31    32    1
     7    31    34    1
     8    32    33    1
     9    32    35    1
    10    33    44    1
    11    33    36    1
    12    44    45    1
    13    39    40    1
    14    39    41   am
    15    39    42    2
    16    41    43    1
    17    28    25    1
    18    34    37    1
    19    35    38    1
    20    45    46    1
    21    15    16   ar
    22    15    20   ar
    23    15     6    1
    24    16    17   ar
    25    16    21    2
    26    17    18   ar
    27    17    23    1
    28    18    19   ar
    29    18    22    2
    30    19    20   ar
    31     6     7    1
    32     6    11    1
    33     7     8    1
    34     7     9    1
    35     8    13    1
    36     9    10    1
    37     9    12    1
    38    10    11    1
    39    10     5    1
    40    12    14    1
    41     5     4    1
    42     4     1    1
    43     1     2    2
    44     1     3    1
    45     1    24    1
    46    24    25    1
    47    25    26    2
    48    25    27    1
@<TRIPOS>MOLECULE
UD1
 46 48 0 0 0
SMALL
GASTEIGER

@<TRIPOS>ATOM
      1 P          20.1969   70.1294   -3.1866 P.3     1  UNL1        0.2189
      2 O          21.6466   69.8455   -3.1070 O.2     1  UNL1       -0.5170
      3 O          19.4180   69.2593   -2.0781 O.3     1  UNL1       -0.4371
      4 O          19.6540   69.7400   -4.6517 O.3     1  UNL1       -0.3112
      5 C          18.2309   69.8552   -4.6099 C.3     1  UNL1        0.1811
      6 C          18.7612   72.4388   -7.0534 C.3     1  UNL1        0.2383
      7 C          18.4545   71.1710   -7.8893 C.3     1  UNL1        0.1895
      8 O          17.8053   71.5114   -9.1148 O.3     1  UNL1       -0.3779
      9 C          17.4963   70.3883   -6.9543 C.3     1  UNL1        0.1713
     10 C          17.7804   70.9695   -5.5557 C.3     1  UNL1        0.1764
     11 O          18.8293   71.9424   -5.6997 O.3     1  UNL1       -0.3308
     12 O          16.1358   70.6138   -7.3299 O.3     1  UNL1       -0.3794
     13 H          17.6435   70.6823   -9.5859 H       1  UNL1        0.2106
     14 H          16.0371   70.2837   -8.2329 H       1  UNL1        0.2105
     15 N          20.0403   73.0272   -7.4524 N.ar    1  UNL1       -0.2551
     16 C          20.0619   74.0312   -8.3461 C.ar    1  UNL1        0.3323
     17 N          21.2236   74.5939   -8.7284 N.ar    1  UNL1       -0.2743
     18 C          22.3923   74.1496   -8.2239 C.ar    1  UNL1        0.2626
     19 C          22.3844   73.0892   -7.2867 C.ar    1  UNL1        0.0795
     20 C          21.2046   72.5465   -6.9166 C.ar    1  UNL1        0.0869
     21 O          19.0161   74.4430   -8.8101 O.2     1  UNL1       -0.2464
     22 O          23.4435   74.6544   -8.5724 O.2     1  UNL1       -0.2670
     23 H          21.2202   75.3204   -9.3706 H       1  UNL1        0.1734
     24 O          19.9410   71.6951   -2.9184 O.3     1  UNL1       -0.2703
     25 P          21.3835   72.4081   -2.9161 P.3     1  UNL1        0.2208
     26 O          21.2762   73.7402   -3.5510 O.2     1  UNL1       -0.5170
     27 O          22.4309   71.5046   -3.7401 O.3     1  UNL1       -0.4371
     28 O          21.8982   72.5761   -1.4004 O.3     1  UNL1       -0.2865
     29 C          20.7654   72.3748   -0.5533 C.3     1  UNL1        0.2611
     30 C          20.3780   73.7044    0.0964 C.3     1  UNL1        0.1582
     31 C          21.5692   74.2341    0.9026 C.3     1  UNL1        0.1625
     32 C          22.0273   73.1421    1.8752 C.3     1  UNL1        0.1686
     33 C          22.2933   71.8557    1.0906 C.3     1  UNL1        0.1760
     34 O          21.1737   75.3961    1.6340 O.3     1  UNL1       -0.3801
     35 O          23.2256   73.5593    2.5322 O.3     1  UNL1       -0.3794
     36 O          21.0915   71.4212    0.4554 O.3     1  UNL1       -0.3263
     37 H          21.9513   75.6953    2.1250 H       1  UNL1        0.2105
     38 H          23.4788   72.8441    3.1329 H       1  UNL1        0.2105
     39 C          18.7250   74.9052   -1.2301 C.2     1  UNL1        0.2231
     40 C          18.3570   75.9007   -2.3006 C.3     1  UNL1        0.0946
     41 N          20.0201   74.6717   -0.9430 N.am    1  UNL1       -0.2994
     42 O          17.8549   74.3136   -0.6275 O.2     1  UNL1       -0.2751
     43 H          20.7166   75.1449   -1.4253 H       1  UNL1        0.1496
     44 C          22.7827   70.7675    2.0486 C.3     1  UNL1        0.1693
     45 O          23.2030   69.6260    1.2986 O.3     1  UNL1       -0.3794
     46 H          23.5027   68.9659    1.9382 H       1  UNL1        0.2105
@<TRIPOS>BOND
     1    29    30    1
     2    29    28    1
     3    29    36    1
     4    30    31    1
     5    30    41    1
     6    31    32    1
     7    31    34    1
     8    32    33    1
     9    32    35    1
    10    33    44    1
    11    33    36    1
    12    44    45    1
    13    39    40    1
    14    39    41   am
    15    39    42    2
    16    41    43    1
    17    28    25    1
    18    34    37    1
    19    35    38    1
    20    45    46    1
    21    15    16   ar
    22    15    20   ar
    23    15     6    1
    24    16    17   ar
    25    16    21    2
    26    17    18   ar
    27    17    23    1
    28    18    19   ar
    29    18    22    2
    30    19    20   ar
    31     6     7    1
    32     6    11    1
    33     7     8    1
    34     7     9    1
    35     8    13    1
    36     9    10    1
    37     9    12    1
    38    10    11    1
    39    10     5    1
    40    12    14    1
    41     5     4    1
    42     4     1    1
    43     1     2    2
    44     1     3    1
    45     1    24    1
    46    24    25    1
    47    25    26    2
    48    25    27    1
@<TRIPOS>MOLECULE
UD1
 46 48 0 0 0
SMALL
GASTEIGER

@<TRIPOS>ATOM
      1 P          20.2014   70.2484   -2.5156 P.3     1  UNL1        0.2189
      2 O          19.2397   69.1692   -2.2007 O.2     1  UNL1       -0.5170
      3 O          19.8558   71.5497   -1.6326 O.3     1  UNL1       -0.4371
      4 O          20.0980   70.6192   -4.0792 O.3     1  UNL1       -0.3112
      5 C          19.4967   71.9125   -4.1590 C.3     1  UNL1        0.1811
      6 C          16.6313   72.1901   -6.3130 C.3     1  UNL1        0.2383
      7 C          17.1540   70.7504   -6.5459 C.3     1  UNL1        0.1895
      8 O          16.0831   69.8647   -6.8741 O.3     1  UNL1       -0.3779
      9 C          17.7608   70.3966   -5.1632 C.3     1  UNL1        0.1713
     10 C          18.0138   71.7661   -4.5039 C.3     1  UNL1        0.1764
     11 O          17.6304   72.7768   -5.4520 O.3     1  UNL1       -0.3308
     12 O          16.8352   69.6266   -4.3929 O.3     1  UNL1       -0.3794
     13 H          16.4736   68.9898   -7.0065 H       1  UNL1        0.2106
     14 H          16.6724   68.8112   -4.8856 H       1  UNL1        0.2105
     15 N          16.5451   72.9222   -7.5771 N.ar    1  UNL1       -0.2551
     16 C          17.6107   72.9663   -8.3956 C.ar    1  UNL1        0.3323
     17 N          17.5586   73.6290   -9.5662 N.ar    1  UNL1       -0.2743
     18 C          16.4314   74.2709   -9.9341 C.ar    1  UNL1        0.2626
     19 C          15.3041   74.2376   -9.0791 C.ar    1  UNL1        0.0795
     20 C          15.3820   73.5611   -7.9131 C.ar    1  UNL1        0.0869
     21 O          18.6344   72.3922   -8.0778 O.2     1  UNL1       -0.2464
     22 O          16.3848   74.8743  -10.9900 O.2     1  UNL1       -0.2670
     23 H          18.3352   73.6464  -10.1465 H       1  UNL1        0.1734
     24 O          21.6944   69.7517   -2.1797 O.3     1  UNL1       -0.2703
     25 P          22.0900   70.3955   -0.7590 P.3     1  UNL1        0.2208
     26 O          23.5454   70.2475   -0.5386 O.2     1  UNL1       -0.5170
     27 O          21.2903   69.6383    0.4154 O.3     1  UNL1       -0.4371
     28 O          21.7020   71.9576   -0.7496 O.3     1  UNL1       -0.2865
     29 C          22.9073   72.6825   -0.4989 C.3     1  UNL1        0.2611
     30 C          22.6558   73.7157    0.6008 C.3     1  UNL1        0.1582
     31 C          21.5378   74.6634    0.1519 C.3     1  UNL1        0.1625
     32 C          21.9081   75.2448   -1.2167 C.3     1  UNL1        0.1686
     33 C          22.2131   74.0959   -2.1802 C.3     1  UNL1        0.1760
     34 O          21.3958   75.7206    1.1025 O.3     1  UNL1       -0.3801
     35 O          20.8153   76.0153   -1.7202 O.3     1  UNL1       -0.3794
     36 O          23.3220   73.3405   -1.6941 O.3     1  UNL1       -0.3263
     37 H          20.6838   76.2910    0.7816 H       1  UNL1        0.2105
     38 H          21.0901   76.3612   -2.5812 H       1  UNL1        0.2105
     39 C          22.7327   73.4488    3.0209 C.2     1  UNL1        0.2231
     40 C          22.3200   72.7449    4.2884 C.3     1  UNL1        0.0946
     41 N          22.2549   73.0325    1.8324 N.am    1  UNL1       -0.2994
     42 O          23.4957   74.3898    3.0709 O.2     1  UNL1       -0.2751
     43 H          21.6444   72.2793    1.7921 H       1  UNL1        0.1496
     44 C          22.5527   74.6651   -3.5593 C.3     1  UNL1        0.1693
     45 O          23.3084   75.8681   -3.4057 O.3     1  UNL1       -0.3794
     46 H          23.5008   76.1933   -4.2955 H       1  UNL1        0.2105
@<TRIPOS>BOND
     1    29    30    1
     2    29    28    1
     3    29    36    1
     4    30    31    1
     5    30    41    1
     6    31    32    1
     7    31    34    1
     8    32    33    1
     9    32    35    1
    10    33    44    1
    11    33    36    1
    12    44    45    1
    13    39    40    1
    14    39    41   am
    15    39    42    2
    16    41    43    1
    17    28    25    1
    18    34    37    1
    19    35    38    1
    20    45    46    1
    21    15    16   ar
    22    15    20   ar
    23    15     6    1
    24    16    17   ar
    25    16    21    2
    26    17    18   ar
    27    17    23    1
    28    18    19   ar
    29    18    22    2
    30    19    20   ar
    31     6     7    1
    32     6    11    1
    33     7     8    1
    34     7     9    1
    35     8    13    1
    36     9    10    1
    37     9    12    1
    38    10    11    1
    39    10     5    1
    40    12    14    1
    41     5     4    1
    42     4     1    1
    43     1     2    2
    44     1     3    1
    45     1    24    1
    46    24    25    1
    47    25    26    2
    48    25    27    1
@<TRIPOS>MOLECULE
UD1
 46 48 0 0 0
SMALL
GASTEIGER

@<TRIPOS>ATOM
      1 P          22.8801   72.1143   -3.4225 P.3     1  UNL1        0.2189
      2 O          23.4068   70.7664   -3.1151 O.2     1  UNL1       -0.5170
      3 O          23.9402   72.9090   -4.3376 O.3     1  UNL1       -0.4371
      4 O          22.6443   72.9235   -2.0505 O.3     1  UNL1       -0.3112
      5 C          21.9922   72.0280   -1.1487 C.3     1  UNL1        0.1811
      6 C          22.7408   73.1699    2.1774 C.3     1  UNL1        0.2383
      7 C          21.7028   72.0377    2.3801 C.3     1  UNL1        0.1895
      8 O          21.9130   71.3683    3.6238 O.3     1  UNL1       -0.3779
      9 C          22.0102   71.0967    1.1863 C.3     1  UNL1        0.1713
     10 C          22.7500   71.9986    0.1795 C.3     1  UNL1        0.1764
     11 O          22.8005   73.3204    0.7430 O.3     1  UNL1       -0.3308
     12 O          22.8440   70.0138    1.6045 O.3     1  UNL1       -0.3794
     13 H          21.2375   70.6791    3.6887 H       1  UNL1        0.2106
     14 H          22.3499   69.5238    2.2753 H       1  UNL1        0.2105
     15 N          22.2866   74.4099    2.8080 N.ar    1  UNL1       -0.2551
     16 C          20.9734   74.6949    2.8478 C.ar    1  UNL1        0.3323
     17 N          20.5269   75.8263    3.4249 N.ar    1  UNL1       -0.2743
     18 C          21.3972   76.7015    3.9675 C.ar    1  UNL1        0.2626
     19 C          22.7829   76.4168    3.9271 C.ar    1  UNL1        0.0795
     20 C          23.2030   75.2722    3.3469 C.ar    1  UNL1        0.0869
     21 O          20.1761   73.9154    2.3628 O.2     1  UNL1       -0.2464
     22 O          20.9949   77.7270    4.4852 O.2     1  UNL1       -0.2670
     23 H          19.5758   76.0136    3.4488 H       1  UNL1        0.1734
     24 O          21.4845   71.9782   -4.2116 O.3     1  UNL1       -0.2703
     25 P          21.5006   73.0854   -5.3791 P.3     1  UNL1        0.2208
     26 O          22.7299   72.9316   -6.1878 O.2     1  UNL1       -0.5170
     27 O          21.4700   74.5563   -4.7251 O.3     1  UNL1       -0.4371
     28 O          20.2105   72.8919   -6.3218 O.3     1  UNL1       -0.2865
     29 C          20.2406   71.5438   -6.7938 C.3     1  UNL1        0.2611
     30 C          20.2203   71.5436   -8.3234 C.3     1  UNL1        0.1582
     31 C          18.9538   72.2585   -8.8079 C.3     1  UNL1        0.1625
     32 C          17.7379   71.6082   -8.1396 C.3     1  UNL1        0.1686
     33 C          17.9442   71.6062   -6.6234 C.3     1  UNL1        0.1760
     34 O          18.8475   72.1348  -10.2273 O.3     1  UNL1       -0.3801
     35 O          16.5609   72.3513   -8.4622 O.3     1  UNL1       -0.3794
     36 O          19.1038   70.8418   -6.2957 O.3     1  UNL1       -0.3263
     37 H          18.0394   72.5976  -10.4884 H       1  UNL1        0.2105
     38 H          15.8213   71.9090   -8.0217 H       1  UNL1        0.2105
     39 C          21.3499   73.5674   -9.0735 C.2     1  UNL1        0.2231
     40 C          22.5673   74.2877   -9.5945 C.3     1  UNL1        0.0946
     41 N          21.4028   72.2439   -8.8291 N.am    1  UNL1       -0.2994
     42 O          20.3222   74.1794   -8.8747 O.2     1  UNL1       -0.2751
     43 H          22.2250   71.7539   -8.9884 H       1  UNL1        0.1496
     44 C          16.7204   70.9880   -5.9443 C.3     1  UNL1        0.1693
     45 O          16.2152   69.9221   -6.7509 O.3     1  UNL1       -0.3794
     46 H          15.4467   69.5612   -6.2884 H       1  UNL1        0.2105
@<TRIPOS>BOND
     1    29    30    1
     2    29    28    1
     3    29    36    1
     4    30    31    1
     5    30    41    1
     6    31    32    1
     7    31    34    1
     8    32    33    1
     9    32    35    1
    10    33    44    1
    11    33    36    1
    12    44    45    1
    13    39    40    1
    14    39    41   am
    15    39    42    2
    16    41    43    1
    17    28    25    1
    18    34    37    1
    19    35    38    1
    20    45    46    1
    21    15    16   ar
    22    15    20   ar
    23    15     6    1
    24    16    17   ar
    25    16    21    2
    26    17    18   ar
    27    17    23    1
    28    18    19   ar
    29    18    22    2
    30    19    20   ar
    31     6     7    1
    32     6    11    1
    33     7     8    1
    34     7     9    1
    35     8    13    1
    36     9    10    1
    37     9    12    1
    38    10    11    1
    39    10     5    1
    40    12    14    1
    41     5     4    1
    42     4     1    1
    43     1     2    2
    44     1     3    1
    45     1    24    1
    46    24    25    1
    47    25    26    2
    48    25    27    1
@<TRIPOS>MOLECULE
UD1
 46 48 0 0 0
SMALL
GASTEIGER

@<TRIPOS>ATOM
      1 P          22.5191   73.1614   -4.3818 P.3     1  UNL1        0.2189
      2 O          22.7631   74.3117   -5.2796 O.2     1  UNL1       -0.5170
      3 O          23.9279   72.5483   -3.9001 O.3     1  UNL1       -0.4371
      4 O          21.6856   72.0324   -5.1713 O.3     1  UNL1       -0.3112
      5 C          21.3616   72.5767   -6.4516 C.3     1  UNL1        0.1811
      6 C          18.1925   72.3827   -8.1387 C.3     1  UNL1        0.2383
      7 C          19.2425   72.1941   -9.2622 C.3     1  UNL1        0.1895
      8 O          18.7336   71.3585  -10.3024 O.3     1  UNL1       -0.3779
      9 C          20.4036   71.4947   -8.5086 C.3     1  UNL1        0.1713
     10 C          20.1514   71.8406   -7.0284 C.3     1  UNL1        0.1764
     11 O          18.9924   72.6900   -6.9771 O.3     1  UNL1       -0.3308
     12 O          20.3538   70.0812   -8.7143 O.3     1  UNL1       -0.3794
     13 H          19.4320   71.2820  -10.9672 H       1  UNL1        0.2106
     14 H          20.4577   69.9333   -9.6638 H       1  UNL1        0.2105
     15 N          17.2900   73.4912   -8.4519 N.ar    1  UNL1       -0.2551
     16 C          17.7941   74.7161   -8.6818 C.ar    1  UNL1        0.3323
     17 N          16.9880   75.7534   -8.9760 N.ar    1  UNL1       -0.2743
     18 C          15.6522   75.5802   -9.0359 C.ar    1  UNL1        0.2626
     19 C          15.1077   74.2972   -8.7902 C.ar    1  UNL1        0.0795
     20 C          15.9396   73.2732   -8.5026 C.ar    1  UNL1        0.0869
     21 O          18.9968   74.8882   -8.6315 O.2     1  UNL1       -0.2464
     22 O          14.9221   76.5183   -9.2971 O.2     1  UNL1       -0.2670
     23 H          17.3691   76.6291   -9.1437 H       1  UNL1        0.1734
     24 O          21.6790   73.6501   -3.0996 O.3     1  UNL1       -0.2703
     25 P          22.6941   74.4810   -2.1677 P.3     1  UNL1        0.2208
     26 O          22.4156   75.9278   -2.3028 O.2     1  UNL1       -0.5170
     27 O          24.2091   74.1821   -2.6236 O.3     1  UNL1       -0.4371
     28 O          22.5000   74.0383   -0.6325 O.3     1  UNL1       -0.2865
     29 C          21.2405   73.3688   -0.5503 C.3     1  UNL1        0.2611
     30 C          20.4779   73.8761    0.6749 C.3     1  UNL1        0.1582
     31 C          21.3148   73.6108    1.9314 C.3     1  UNL1        0.1625
     32 C          21.6900   72.1255    1.9658 C.3     1  UNL1        0.1686
     33 C          22.3640   71.7510    0.6442 C.3     1  UNL1        0.1760
     34 O          20.5524   73.9425    3.0933 O.3     1  UNL1       -0.3801
     35 O          22.5910   71.8851    3.0484 O.3     1  UNL1       -0.3794
     36 O          21.4571   71.9640   -0.4369 O.3     1  UNL1       -0.3263
     37 H          21.1157   73.7611    3.8583 H       1  UNL1        0.2105
     38 H          22.8014   70.9406    3.0328 H       1  UNL1        0.2105
     39 C          19.0478   75.8351    0.9013 C.2     1  UNL1        0.2231
     40 C          18.7996   77.3155    0.7627 C.3     1  UNL1        0.0946
     41 N          20.2365   75.3142    0.5409 N.am    1  UNL1       -0.2994
     42 O          18.1770   75.1126    1.3368 O.2     1  UNL1       -0.2751
     43 H          20.9335   75.8922    0.1921 H       1  UNL1        0.1496
     44 C          22.7720   70.2768    0.6810 C.3     1  UNL1        0.1693
     45 O          21.6097   69.4568    0.5443 O.3     1  UNL1       -0.3794
     46 H          21.9102   68.5384    0.5728 H       1  UNL1        0.2105
@<TRIPOS>BOND
     1    29    30    1
     2    29    28    1
     3    29    36    1
     4    30    31    1
     5    30    41    1
     6    31    32    1
     7    31    34    1
     8    32    33    1
     9    32    35    1
    10    33    44    1
    11    33    36    1
    12    44    45    1
    13    39    40    1
    14    39    41   am
    15    39    42    2
    16    41    43    1
    17    28    25    1
    18    34    37    1
    19    35    38    1
    20    45    46    1
    21    15    16   ar
    22    15    20   ar
    23    15     6    1
    24    16    17   ar
    25    16    21    2
    26    17    18   ar
    27    17    23    1
    28    18    19   ar
    29    18    22    2
    30    19    20   ar
    31     6     7    1
    32     6    11    1
    33     7     8    1
    34     7     9    1
    35     8    13    1
    36     9    10    1
    37     9    12    1
    38    10    11    1
    39    10     5    1
    40    12    14    1
    41     5     4    1
    42     4     1    1
    43     1     2    2
    44     1     3    1
    45     1    24    1
    46    24    25    1
    47    25    26    2
    48    25    27    1
@<TRIPOS>MOLECULE
UD1
 46 48 0 0 0
SMALL
GASTEIGER

@<TRIPOS>ATOM
      1 P          22.7805   73.7007   -4.3358 P.3     1  UNL1        0.2189
      2 O          23.8248   72.6576   -4.2355 O.2     1  UNL1       -0.5170
      3 O          23.1787   74.7495   -5.4909 O.3     1  UNL1       -0.4371
      4 O          22.6585   74.4742   -2.9288 O.3     1  UNL1       -0.3112
      5 C          21.7334   73.7357   -2.1294 C.3     1  UNL1        0.1811
      6 C          22.4464   72.2992    1.0886 C.3     1  UNL1        0.2383
      7 C          21.4681   71.2980    0.4247 C.3     1  UNL1        0.1895
      8 O          21.7202   69.9650    0.8707 O.3     1  UNL1       -0.3779
      9 C          21.8142   71.4531   -1.0791 C.3     1  UNL1        0.1713
     10 C          22.5009   72.8299   -1.1651 C.3     1  UNL1        0.1764
     11 O          22.4886   73.3993    0.1550 O.3     1  UNL1       -0.3308
     12 O          22.7043   70.4159   -1.4973 O.3     1  UNL1       -0.3794
     13 H          21.0807   69.3941    0.4229 H       1  UNL1        0.2106
     14 H          22.2400   69.5788   -1.3636 H       1  UNL1        0.2105
     15 N          21.9348   72.7425    2.3859 N.ar    1  UNL1       -0.2551
     16 C          20.8376   73.5175    2.4400 C.ar    1  UNL1        0.3323
     17 N          20.3426   73.9368    3.6195 N.ar    1  UNL1       -0.2743
     18 C          20.9495   73.5907    4.7727 C.ar    1  UNL1        0.2626
     19 C          22.1088   72.7801    4.7300 C.ar    1  UNL1        0.0795
     20 C          22.5809   72.3692    3.5335 C.ar    1  UNL1        0.0869
     21 O          20.2791   73.8380    1.4085 O.2     1  UNL1       -0.2464
     22 O          20.5055   73.9732    5.8395 O.2     1  UNL1       -0.2670
     23 H          19.5475   74.4914    3.6401 H       1  UNL1        0.1734
     24 O          21.3699   73.0152   -4.6952 O.3     1  UNL1       -0.2703
     25 P          21.1696   73.1694   -6.2843 P.3     1  UNL1        0.2208
     26 O          22.3326   72.5843   -6.9871 O.2     1  UNL1       -0.5170
     27 O          21.0450   74.7297   -6.6613 O.3     1  UNL1       -0.4371
     28 O          19.8287   72.4013   -6.7345 O.3     1  UNL1       -0.2865
     29 C          18.8107   72.7617   -5.7990 C.3     1  UNL1        0.2611
     30 C          18.1229   71.4945   -5.2880 C.3     1  UNL1        0.1582
     31 C          17.5215   70.7365   -6.4769 C.3     1  UNL1        0.1625
     32 C          16.6215   71.6946   -7.2644 C.3     1  UNL1        0.1686
     33 C          17.4237   72.9455   -7.6290 C.3     1  UNL1        0.1760
     34 O          16.7499   69.6325   -6.0001 O.3     1  UNL1       -0.3801
     35 O          16.1673   71.0519   -8.4571 O.3     1  UNL1       -0.3794
     36 O          17.8556   73.6049   -6.4394 O.3     1  UNL1       -0.3263
     37 H          16.3916   69.1850   -6.7789 H       1  UNL1        0.2105
     38 H          15.6062   71.6889   -8.9217 H       1  UNL1        0.2105
     39 C          18.7426   69.9319   -3.5250 C.2     1  UNL1        0.2231
     40 C          19.7524   69.0574   -2.8266 C.3     1  UNL1        0.0946
     41 N          19.1034   70.6445   -4.6095 N.am    1  UNL1       -0.2994
     42 O          17.6049   69.9946   -3.1101 O.2     1  UNL1       -0.2751
     43 H          20.0138   70.5947   -4.9416 H       1  UNL1        0.1496
     44 C          16.5431   73.8949   -8.4441 C.3     1  UNL1        0.1693
     45 O          15.1684   73.5595   -8.2446 O.3     1  UNL1       -0.3794
     46 H          14.6494   74.1796   -8.7744 H       1  UNL1        0.2105
@<TRIPOS>BOND
     1    29    30    1
     2    29    28    1
     3    29    36    1
     4    30    31    1
     5    30    41    1
     6    31    32    1
     7    31    34    1
     8    32    33    1
     9    32    35    1
    10    33    44    1
    11    33    36    1
    12    44    45    1
    13    39    40    1
    14    39    41   am
    15    39    42    2
    16    41    43    1
    17    28    25    1
    18    34    37    1
    19    35    38    1
    20    45    46    1
    21    15    16   ar
    22    15    20   ar
    23    15     6    1
    24    16    17   ar
    25    16    21    2
    26    17    18   ar
    27    17    23    1
    28    18    19   ar
    29    18    22    2
    30    19    20   ar
    31     6     7    1
    32     6    11    1
    33     7     8    1
    34     7     9    1
    35     8    13    1
    36     9    10    1
    37     9    12    1
    38    10    11    1
    39    10     5    1
    40    12    14    1
    41     5     4    1
    42     4     1    1
    43     1     2    2
    44     1     3    1
    45     1    24    1
    46    24    25    1
    47    25    26    2
    48    25    27    1
@<TRIPOS>MOLECULE
UD1
 46 48 0 0 0
SMALL
GASTEIGER

@<TRIPOS>ATOM
      1 P          19.7213   70.9340   -2.5673 P.3     1  UNL1        0.2189
      2 O          19.8470   69.5233   -2.1396 O.2     1  UNL1       -0.5170
      3 O          20.7168   71.2112   -3.8021 O.3     1  UNL1       -0.4371
      4 O          20.1073   71.9026   -1.3402 O.3     1  UNL1       -0.3112
      5 C          21.2647   72.6375   -1.7413 C.3     1  UNL1        0.1811
      6 C          22.7617   72.4530    1.5225 C.3     1  UNL1        0.2383
      7 C          22.2142   71.0267    1.2654 C.3     1  UNL1        0.1895
      8 O          23.0156   70.0452    1.9238 O.3     1  UNL1       -0.3779
      9 C          22.3411   70.9020   -0.2752 C.3     1  UNL1        0.1713
     10 C          22.4090   72.3615   -0.7647 C.3     1  UNL1        0.1764
     11 O          22.2810   73.2083    0.3902 O.3     1  UNL1       -0.3308
     12 O          23.5333   70.1948   -0.6234 O.3     1  UNL1       -0.3794
     13 H          22.6229   69.1838    1.7252 H       1  UNL1        0.2106
     14 H          23.4562   69.3113   -0.2392 H       1  UNL1        0.2105
     15 N          22.2267   72.9975    2.7709 N.ar    1  UNL1       -0.2551
     16 C          23.0382   73.6680    3.6072 C.ar    1  UNL1        0.3323
     17 N          22.5724   74.1832    4.7604 N.ar    1  UNL1       -0.2743
     18 C          21.2775   74.0252    5.1011 C.ar    1  UNL1        0.2626
     19 C          20.4136   73.3164    4.2328 C.ar    1  UNL1        0.0795
     20 C          20.9058   72.8147    3.0798 C.ar    1  UNL1        0.0869
     21 O          24.2086   73.8188    3.3138 O.2     1  UNL1       -0.2464
     22 O          20.8564   74.4864    6.1458 O.2     1  UNL1       -0.2670
     23 H          23.1708   74.6681    5.3495 H       1  UNL1        0.1734
     24 O          18.2057   71.2237   -3.0230 O.3     1  UNL1       -0.2703
     25 P          17.9938   70.4782   -4.4333 P.3     1  UNL1        0.2208
     26 O          16.7877   69.6241   -4.3633 O.2     1  UNL1       -0.5170
     27 O          19.2794   69.5646   -4.7566 O.3     1  UNL1       -0.4371
     28 O          17.8088   71.5733   -5.5982 O.3     1  UNL1       -0.2865
     29 C          16.4657   71.4535   -6.0702 C.3     1  UNL1        0.2611
     30 C          16.4370   71.6998   -7.5797 C.3     1  UNL1        0.1582
     31 C          16.9897   73.0998   -7.8697 C.3     1  UNL1        0.1625
     32 C          16.2124   74.1176   -7.0281 C.3     1  UNL1        0.1686
     33 C          16.2607   73.6904   -5.5596 C.3     1  UNL1        0.1760
     34 O          16.8300   73.3996   -9.2575 O.3     1  UNL1       -0.3801
     35 O          16.8064   75.4092   -7.1713 O.3     1  UNL1       -0.3794
     36 O          15.6436   72.4126   -5.4086 O.3     1  UNL1       -0.3263
     37 H          17.1902   74.2866   -9.3950 H       1  UNL1        0.2105
     38 H          16.2879   76.0176   -6.6259 H       1  UNL1        0.2105
     39 C          18.5478   70.9698   -8.5522 C.2     1  UNL1        0.2231
     40 C          19.3971   69.9371   -9.2484 C.3     1  UNL1        0.0946
     41 N          17.2626   70.6968   -8.2555 N.am    1  UNL1       -0.2994
     42 O          19.0213   72.0470   -8.2597 O.2     1  UNL1       -0.2751
     43 H          16.8834   69.8349   -8.4897 H       1  UNL1        0.1496
     44 C          15.5146   74.7180   -4.7061 C.3     1  UNL1        0.1693
     45 O          16.0436   74.7093   -3.3786 O.3     1  UNL1       -0.3794
     46 H          15.5471   75.3687   -2.8752 H       1  UNL1        0.2105
@<TRIPOS>BOND
     1    29    30    1
     2    29    28    1
     3    29    36    1
     4    30    31    1
     5    30    41    1
     6    31    32    1
     7    31    34    1
     8    32    33    1
     9    32    35    1
    10    33    44    1
    11    33    36    1
    12    44    45    1
    13    39    40    1
    14    39    41   am
    15    39    42    2
    16    41    43    1
    17    28    25    1
    18    34    37    1
    19    35    38    1
    20    45    46    1
    21    15    16   ar
    22    15    20   ar
    23    15     6    1
    24    16    17   ar
    25    16    21    2
    26    17    18   ar
    27    17    23    1
    28    18    19   ar
    29    18    22    2
    30    19    20   ar
    31     6     7    1
    32     6    11    1
    33     7     8    1
    34     7     9    1
    35     8    13    1
    36     9    10    1
    37     9    12    1
    38    10    11    1
    39    10     5    1
    40    12    14    1
    41     5     4    1
    42     4     1    1
    43     1     2    2
    44     1     3    1
    45     1    24    1
    46    24    25    1
    47    25    26    2
    48    25    27    1
@<TRIPOS>MOLECULE
UD1
 46 48 0 0 0
SMALL
GASTEIGER

@<TRIPOS>ATOM
      1 P          19.1769   69.8026   -3.1602 P.3     1  UNL1        0.2189
      2 O          18.9989   71.2461   -2.8893 O.2     1  UNL1       -0.5170
      3 O          18.1905   68.9531   -2.2126 O.3     1  UNL1       -0.4371
      4 O          20.7021   69.3845   -2.8576 O.3     1  UNL1       -0.3112
      5 C          21.4897   70.5689   -2.9884 C.3     1  UNL1        0.1811
      6 C          22.6266   72.3842   -0.1006 C.3     1  UNL1        0.2383
      7 C          21.4686   71.5008    0.4273 C.3     1  UNL1        0.1895
      8 O          21.6824   71.1399    1.7923 O.3     1  UNL1       -0.3779
      9 C          21.5611   70.2574   -0.4949 C.3     1  UNL1        0.1713
     10 C          22.3344   70.7626   -1.7282 C.3     1  UNL1        0.1764
     11 O          22.5980   72.1616   -1.5265 O.3     1  UNL1       -0.3308
     12 O          22.2761   69.2044    0.1553 O.3     1  UNL1       -0.3794
     13 H          20.9298   70.5939    2.0589 H       1  UNL1        0.2106
     14 H          21.7741   68.9741    0.9484 H       1  UNL1        0.2105
     15 N          22.3857   73.7946    0.2065 N.ar    1  UNL1       -0.2551
     16 C          21.1306   74.2757    0.1869 C.ar    1  UNL1        0.3323
     17 N          20.8790   75.5678    0.4691 N.ar    1  UNL1       -0.2743
     18 C          21.8907   76.4072    0.7689 C.ar    1  UNL1        0.2626
     19 C          23.2175   75.9152    0.7873 C.ar    1  UNL1        0.0795
     20 C          23.4409   74.6136    0.5056 C.ar    1  UNL1        0.0869
     21 O          20.2075   73.5311   -0.0817 O.2     1  UNL1       -0.2464
     22 O          21.6649   77.5766    1.0195 O.2     1  UNL1       -0.2670
     23 H          19.9670   75.8967    0.4549 H       1  UNL1        0.1734
     24 O          18.8335   69.4997   -4.7027 O.3     1  UNL1       -0.2703
     25 P          17.3819   70.1322   -4.9887 P.3     1  UNL1        0.2208
     26 O          16.6847   70.3672   -3.7051 O.2     1  UNL1       -0.5170
     27 O          16.5193   69.1129   -5.8882 O.3     1  UNL1       -0.4371
     28 O          17.5483   71.5282   -5.7723 O.3     1  UNL1       -0.2865
     29 C          16.3299   71.7517   -6.4842 C.3     1  UNL1        0.2611
     30 C          16.6533   72.1984   -7.9110 C.3     1  UNL1        0.1582
     31 C          17.4915   73.4807   -7.8570 C.3     1  UNL1        0.1625
     32 C          16.7510   74.5146   -7.0021 C.3     1  UNL1        0.1686
     33 C          16.4228   73.8940   -5.6425 C.3     1  UNL1        0.1760
     34 O          17.6734   73.9899   -9.1795 O.3     1  UNL1       -0.3801
     35 O          17.5799   75.6636   -6.8170 O.3     1  UNL1       -0.3794
     36 O          15.5725   72.7621   -5.8218 O.3     1  UNL1       -0.3263
     37 H          18.2047   74.7940   -9.0986 H       1  UNL1        0.2105
     38 H          17.0767   76.2870   -6.2742 H       1  UNL1        0.2105
     39 C          18.7559   71.1629   -8.5750 C.2     1  UNL1        0.2231
     40 C          19.5336   70.0803   -9.2789 C.3     1  UNL1        0.0946
     41 N          17.4092   71.1467   -8.5942 N.am    1  UNL1       -0.2994
     42 O          19.3427   72.0493   -7.9918 O.2     1  UNL1       -0.2751
     43 H          16.9395   70.4375   -9.0611 H       1  UNL1        0.1496
     44 C          15.7116   74.9295   -4.7689 C.3     1  UNL1        0.1693
     45 O          15.0361   75.8733   -5.6026 O.3     1  UNL1       -0.3794
     46 H          14.6027   76.5063   -5.0143 H       1  UNL1        0.2105
@<TRIPOS>BOND
     1    29    30    1
     2    29    28    1
     3    29    36    1
     4    30    31    1
     5    30    41    1
     6    31    32    1
     7    31    34    1
     8    32    33    1
     9    32    35    1
    10    33    44    1
    11    33    36    1
    12    44    45    1
    13    39    40    1
    14    39    41   am
    15    39    42    2
    16    41    43    1
    17    28    25    1
    18    34    37    1
    19    35    38    1
    20    45    46    1
    21    15    16   ar
    22    15    20   ar
    23    15     6    1
    24    16    17   ar
    25    16    21    2
    26    17    18   ar
    27    17    23    1
    28    18    19   ar
    29    18    22    2
    30    19    20   ar
    31     6     7    1
    32     6    11    1
    33     7     8    1
    34     7     9    1
    35     8    13    1
    36     9    10    1
    37     9    12    1
    38    10    11    1
    39    10     5    1
    40    12    14    1
    41     5     4    1
    42     4     1    1
    43     1     2    2
    44     1     3    1
    45     1    24    1
    46    24    25    1
    47    25    26    2
    48    25    27    1
@<TRIPOS>MOLECULE
UD1
 46 48 0 0 0
SMALL
GASTEIGER

@<TRIPOS>ATOM
      1 P          22.6067   73.1960   -4.6381 P.3     1  UNL1        0.2189
      2 O          23.7855   72.5390   -4.0318 O.2     1  UNL1       -0.5170
      3 O          22.8550   74.7853   -4.7085 O.3     1  UNL1       -0.4371
      4 O          21.3047   72.8965   -3.7393 O.3     1  UNL1       -0.3112
      5 C          21.4550   73.6436   -2.5312 C.3     1  UNL1        0.1811
      6 C          22.1656   72.3598    0.7512 C.3     1  UNL1        0.2383
      7 C          21.2719   71.2771    0.0961 C.3     1  UNL1        0.1895
      8 O          21.5950   69.9780    0.5934 O.3     1  UNL1       -0.3779
      9 C          21.6501   71.4057   -1.4025 C.3     1  UNL1        0.1713
     10 C          22.2505   72.8203   -1.5169 C.3     1  UNL1        0.1764
     11 O          22.1647   73.4298   -0.2176 O.3     1  UNL1       -0.3308
     12 O          22.6155   70.4149   -1.7617 O.3     1  UNL1       -0.3794
     13 H          21.0058   69.3532    0.1485 H       1  UNL1        0.2106
     14 H          22.2015   69.5545   -1.6121 H       1  UNL1        0.2105
     15 N          21.5903   72.8108    2.0189 N.ar    1  UNL1       -0.2551
     16 C          21.9545   72.2122    3.1663 C.ar    1  UNL1        0.3323
     17 N          21.4445   72.6089    4.3473 N.ar    1  UNL1       -0.2743
     18 C          20.5471   73.6139    4.3967 C.ar    1  UNL1        0.2626
     19 C          20.1504   74.2489    3.1957 C.ar    1  UNL1        0.0795
     20 C          20.6817   73.8346    2.0255 C.ar    1  UNL1        0.0869
     21 O          22.7629   71.3043    3.1381 O.2     1  UNL1       -0.2464
     22 O          20.0817   73.9702    5.4634 O.2     1  UNL1       -0.2670
     23 H          21.7220   72.1690    5.1656 H       1  UNL1        0.1734
     24 O          22.3769   72.6214   -6.1234 O.3     1  UNL1       -0.2703
     25 P          20.9695   73.2090   -6.6365 P.3     1  UNL1        0.2208
     26 O          20.8849   73.0724   -8.1073 O.2     1  UNL1       -0.5170
     27 O          20.8582   74.7643   -6.2355 O.3     1  UNL1       -0.4371
     28 O          19.7637   72.3921   -5.9516 O.3     1  UNL1       -0.2865
     29 C          19.7490   71.0950   -6.5504 C.3     1  UNL1        0.2611
     30 C          18.3852   70.8540   -7.1998 C.3     1  UNL1        0.1582
     31 C          17.2933   70.9685   -6.1300 C.3     1  UNL1        0.1625
     32 C          17.6402   70.0259   -4.9728 C.3     1  UNL1        0.1686
     33 C          19.0594   70.3315   -4.4893 C.3     1  UNL1        0.1760
     34 O          16.0324   70.5992   -6.6913 O.3     1  UNL1       -0.3801
     35 O          16.7158   70.2240   -3.9015 O.3     1  UNL1       -0.3794
     36 O          19.9884   70.1082   -5.5493 O.3     1  UNL1       -0.3263
     37 H          15.3764   70.6859   -5.9860 H       1  UNL1        0.2105
     38 H          16.9705   69.6130   -3.1956 H       1  UNL1        0.2105
     39 C          17.4414   72.9635   -7.9704 C.2     1  UNL1        0.2231
     40 C          17.2053   73.9932   -9.0456 C.3     1  UNL1        0.0946
     41 N          18.1559   71.8549   -8.2438 N.am    1  UNL1       -0.2994
     42 O          16.9875   73.1325   -6.8588 O.2     1  UNL1       -0.2751
     43 H          18.5191   71.7193   -9.1334 H       1  UNL1        0.1496
     44 C          19.4038   69.4171   -3.3119 C.3     1  UNL1        0.1693
     45 O          19.5625   68.0763   -3.7801 O.3     1  UNL1       -0.3794
     46 H          19.7778   67.5343   -3.0091 H       1  UNL1        0.2105
@<TRIPOS>BOND
     1    29    30    1
     2    29    28    1
     3    29    36    1
     4    30    31    1
     5    30    41    1
     6    31    32    1
     7    31    34    1
     8    32    33    1
     9    32    35    1
    10    33    44    1
    11    33    36    1
    12    44    45    1
    13    39    40    1
    14    39    41   am
    15    39    42    2
    16    41    43    1
    17    28    25    1
    18    34    37    1
    19    35    38    1
    20    45    46    1
    21    15    16   ar
    22    15    20   ar
    23    15     6    1
    24    16    17   ar
    25    16    21    2
    26    17    18   ar
    27    17    23    1
    28    18    19   ar
    29    18    22    2
    30    19    20   ar
    31     6     7    1
    32     6    11    1
    33     7     8    1
    34     7     9    1
    35     8    13    1
    36     9    10    1
    37     9    12    1
    38    10    11    1
    39    10     5    1
    40    12    14    1
    41     5     4    1
    42     4     1    1
    43     1     2    2
    44     1     3    1
    45     1    24    1
    46    24    25    1
    47    25    26    2
    48    25    27    1
