@<TRIPOS>MOLECULE
UD1
 46 48 0 0 0
SMALL
GASTEIGER

@<TRIPOS>ATOM
      1 P          22.2078   70.9003   -2.5541 P.3     1  UNL1        0.2189
      2 O          23.4608   70.5681   -3.2672 O.2     1  UNL1       -0.5170
      3 O          21.5705   69.5575   -1.9349 O.3     1  UNL1       -0.4371
      4 O          21.1635   71.5627   -3.5853 O.3     1  UNL1       -0.3112
      5 C          20.1864   72.2489   -2.8013 C.3     1  UNL1        0.1811
      6 C          17.9330   71.3071   -5.4400 C.3     1  UNL1        0.2383
      7 C          18.0354   70.0445   -4.5479 C.3     1  UNL1        0.1895
      8 O          16.8199   69.2958   -4.5803 O.3     1  UNL1       -0.3779
      9 C          18.2708   70.6570   -3.1426 C.3     1  UNL1        0.1713
     10 C          18.8060   72.0719   -3.4358 C.3     1  UNL1        0.1764
     11 O          18.9034   72.2071   -4.8639 O.3     1  UNL1       -0.3308
     12 O          17.0437   70.7206   -2.4126 O.3     1  UNL1       -0.3794
     13 H          16.9492   68.5268   -4.0081 H       1  UNL1        0.2106
     14 H          16.7302   69.8117   -2.3137 H       1  UNL1        0.2105
     15 N          18.2797   70.9928   -6.8265 N.ar    1  UNL1       -0.2551
     16 C          17.3075   70.6896   -7.7041 C.ar    1  UNL1        0.3323
     17 N          17.5969   70.4003   -8.9866 N.ar    1  UNL1       -0.2743
     18 C          18.8766   70.4014   -9.4113 C.ar    1  UNL1        0.2626
     19 C          19.9104   70.7130   -8.4965 C.ar    1  UNL1        0.0795
     20 C          19.5916   71.0045   -7.2171 C.ar    1  UNL1        0.0869
     21 O          16.1485   70.6846   -7.3362 O.2     1  UNL1       -0.2464
     22 O          19.1398   70.1353  -10.5694 O.2     1  UNL1       -0.2670
     23 H          16.8826   70.1885   -9.6071 H       1  UNL1        0.1734
     24 O          22.5247   71.9412   -1.3688 O.3     1  UNL1       -0.2703
     25 P          22.4906   71.1050    0.0056 P.3     1  UNL1        0.2208
     26 O          23.5332   70.0560   -0.0293 O.2     1  UNL1       -0.5170
     27 O          21.0450   70.4181    0.1811 O.3     1  UNL1       -0.4371
     28 O          22.7666   72.0948    1.2444 O.3     1  UNL1       -0.2865
     29 C          22.0225   73.2886    0.9949 C.3     1  UNL1        0.2611
     30 C          22.9841   74.4755    0.9142 C.3     1  UNL1        0.1582
     31 C          23.7567   74.5853    2.2335 C.3     1  UNL1        0.1625
     32 C          22.7504   74.6388    3.3879 C.3     1  UNL1        0.1686
     33 C          21.8082   73.4376    3.2837 C.3     1  UNL1        0.1760
     34 O          24.5475   75.7753    2.2277 O.3     1  UNL1       -0.3801
     35 O          23.4490   74.5933    4.6334 O.3     1  UNL1       -0.3794
     36 O          21.0886   73.4947    2.0527 O.3     1  UNL1       -0.3263
     37 H          25.0154   75.8039    3.0736 H       1  UNL1        0.2105
     38 H          22.7794   74.6284    5.3312 H       1  UNL1        0.2105
     39 C          23.9584   75.1396   -1.2175 C.2     1  UNL1        0.2231
     40 C          24.9262   74.9273   -2.3535 C.3     1  UNL1        0.0946
     41 N          23.9244   74.2700   -0.1894 N.am    1  UNL1       -0.2994
     42 O          23.2094   76.0931   -1.2292 O.2     1  UNL1       -0.2751
     43 H          24.5235   73.5068   -0.1799 H       1  UNL1        0.1496
     44 C          20.8193   73.4639    4.4510 C.3     1  UNL1        0.1693
     45 O          21.4442   72.9246    5.6175 O.3     1  UNL1       -0.3794
     46 H          20.7888   72.9592    6.3273 H       1  UNL1        0.2105
@<TRIPOS>BOND
     1    29    30    1
     2    29    28    1
     3    29    36    1
     4    30    31    1
     5    30    41    1
     6    31    32    1
     7    31    34    1
     8    32    33    1
     9    32    35    1
    10    33    44    1
    11    33    36    1
    12    44    45    1
    13    39    40    1
    14    39    41   am
    15    39    42    2
    16    41    43    1
    17    28    25    1
    18    34    37    1
    19    35    38    1
    20    45    46    1
    21    15    16   ar
    22    15    20   ar
    23    15     6    1
    24    16    17   ar
    25    16    21    2
    26    17    18   ar
    27    17    23    1
    28    18    19   ar
    29    18    22    2
    30    19    20   ar
    31     6     7    1
    32     6    11    1
    33     7     8    1
    34     7     9    1
    35     8    13    1
    36     9    10    1
    37     9    12    1
    38    10    11    1
    39    10     5    1
    40    12    14    1
    41     5     4    1
    42     4     1    1
    43     1     2    2
    44     1     3    1
    45     1    24    1
    46    24    25    1
    47    25    26    2
    48    25    27    1
@<TRIPOS>MOLECULE
UD1
 46 48 0 0 0
SMALL
GASTEIGER

@<TRIPOS>ATOM
      1 P          22.1695   70.4729   -0.2478 P.3     1  UNL1        0.2189
      2 O          23.1652   69.6124    0.4282 O.2     1  UNL1       -0.5170
      3 O          21.1487   71.0720    0.8438 O.3     1  UNL1       -0.4371
      4 O          21.3504   69.6005   -1.3252 O.3     1  UNL1       -0.3112
      5 C          21.3441   70.3467   -2.5432 C.3     1  UNL1        0.1811
      6 C          18.6377   70.7368   -4.8778 C.3     1  UNL1        0.2383
      7 C          18.5112   69.2760   -4.3775 C.3     1  UNL1        0.1895
      8 O          17.1479   68.8511   -4.3799 O.3     1  UNL1       -0.3779
      9 C          19.0559   69.3795   -2.9291 C.3     1  UNL1        0.1713
     10 C          19.9018   70.6675   -2.9385 C.3     1  UNL1        0.1764
     11 O          19.8671   71.1946   -4.2757 O.3     1  UNL1       -0.3308
     12 O          17.9787   69.4875   -1.9959 O.3     1  UNL1       -0.3794
     13 H          17.1383   67.9383   -4.0601 H       1  UNL1        0.2106
     14 H          17.4542   68.6802   -2.0803 H       1  UNL1        0.2105
     15 N          18.7306   70.7796   -6.3375 N.ar    1  UNL1       -0.2551
     16 C          17.6091   70.7405   -7.0780 C.ar    1  UNL1        0.3323
     17 N          17.6644   70.7823   -8.4224 N.ar    1  UNL1       -0.2743
     18 C          18.8547   70.8554   -9.0516 C.ar    1  UNL1        0.2626
     19 C          20.0434   70.8913   -8.2845 C.ar    1  UNL1        0.0795
     20 C          19.9588   70.8533   -6.9373 C.ar    1  UNL1        0.0869
     21 O          16.5281   70.6746   -6.5251 O.2     1  UNL1       -0.2464
     22 O          18.9060   70.8885  -10.2672 O.2     1  UNL1       -0.2670
     23 H          16.8452   70.7579   -8.9406 H       1  UNL1        0.1734
     24 O          22.9243   71.6801   -0.9975 O.3     1  UNL1       -0.2703
     25 P          22.3409   73.0472   -0.3811 P.3     1  UNL1        0.2208
     26 O          20.8934   73.1413   -0.6724 O.2     1  UNL1       -0.5170
     27 O          23.1031   74.3025   -1.0411 O.3     1  UNL1       -0.4371
     28 O          22.5695   73.0597    1.2120 O.3     1  UNL1       -0.2865
     29 C          22.3586   74.4030    1.6505 C.3     1  UNL1        0.2611
     30 C          23.5369   74.8405    2.5223 C.3     1  UNL1        0.1582
     31 C          23.6531   73.8920    3.7208 C.3     1  UNL1        0.1625
     32 C          22.2987   73.8368    4.4352 C.3     1  UNL1        0.1686
     33 C          21.2140   73.4719    3.4195 C.3     1  UNL1        0.1760
     34 O          24.6528   74.3762    4.6195 O.3     1  UNL1       -0.3801
     35 O          22.3420   72.8483    5.4661 O.3     1  UNL1       -0.3794
     36 O          21.1493   74.4715    2.4031 O.3     1  UNL1       -0.3263
     37 H          24.6926   73.7510    5.3563 H       1  UNL1        0.2105
     38 H          21.4714   72.8463    5.8885 H       1  UNL1        0.2105
     39 C          25.4588   75.9242    1.4896 C.2     1  UNL1        0.2231
     40 C          26.7298   75.8740    0.6807 C.3     1  UNL1        0.0946
     41 N          24.7719   74.7922    1.7369 N.am    1  UNL1       -0.2994
     42 O          25.0540   76.9839    1.9176 O.2     1  UNL1       -0.2751
     43 H          25.0955   73.9440    1.3943 H       1  UNL1        0.1496
     44 C          19.8616   73.3822    4.1295 C.3     1  UNL1        0.1693
     45 O          19.7207   74.4846    5.0278 O.3     1  UNL1       -0.3794
     46 H          18.8579   74.3901    5.4536 H       1  UNL1        0.2105
@<TRIPOS>BOND
     1    29    30    1
     2    29    28    1
     3    29    36    1
     4    30    31    1
     5    30    41    1
     6    31    32    1
     7    31    34    1
     8    32    33    1
     9    32    35    1
    10    33    44    1
    11    33    36    1
    12    44    45    1
    13    39    40    1
    14    39    41   am
    15    39    42    2
    16    41    43    1
    17    28    25    1
    18    34    37    1
    19    35    38    1
    20    45    46    1
    21    15    16   ar
    22    15    20   ar
    23    15     6    1
    24    16    17   ar
    25    16    21    2
    26    17    18   ar
    27    17    23    1
    28    18    19   ar
    29    18    22    2
    30    19    20   ar
    31     6     7    1
    32     6    11    1
    33     7     8    1
    34     7     9    1
    35     8    13    1
    36     9    10    1
    37     9    12    1
    38    10    11    1
    39    10     5    1
    40    12    14    1
    41     5     4    1
    42     4     1    1
    43     1     2    2
    44     1     3    1
    45     1    24    1
    46    24    25    1
    47    25    26    2
    48    25    27    1
@<TRIPOS>MOLECULE
UD1
 46 48 0 0 0
SMALL
GASTEIGER

@<TRIPOS>ATOM
      1 P          22.1582   71.3094   -0.6172 P.3     1  UNL1        0.2189
      2 O          23.0825   70.3963   -1.3248 O.2     1  UNL1       -0.5170
      3 O          21.2704   70.4685    0.4303 O.3     1  UNL1       -0.4371
      4 O          21.1901   72.0261   -1.6857 O.3     1  UNL1       -0.3112
      5 C          20.8667   71.0464   -2.6736 C.3     1  UNL1        0.1811
      6 C          18.3376   71.0669   -5.2291 C.3     1  UNL1        0.2383
      7 C          18.1364   69.7178   -4.4947 C.3     1  UNL1        0.1895
      8 O          16.7650   69.3206   -4.5219 O.3     1  UNL1       -0.3779
      9 C          18.5839   70.0632   -3.0505 C.3     1  UNL1        0.1713
     10 C          19.4643   71.3163   -3.2210 C.3     1  UNL1        0.1764
     11 O          19.5356   71.6030   -4.6282 O.3     1  UNL1       -0.3308
     12 O          17.4491   70.3491   -2.2299 O.3     1  UNL1       -0.3794
     13 H          16.7080   68.4777   -4.0509 H       1  UNL1        0.2106
     14 H          16.9091   69.5478   -2.2112 H       1  UNL1        0.2105
     15 N          18.5309   70.8535   -6.6638 N.ar    1  UNL1       -0.2551
     16 C          17.4616   70.7485   -7.4719 C.ar    1  UNL1        0.3323
     17 N          17.6096   70.5559   -8.7960 N.ar    1  UNL1       -0.2743
     18 C          18.8416   70.4555   -9.3345 C.ar    1  UNL1        0.2626
     19 C          19.9760   70.5583   -8.4945 C.ar    1  UNL1        0.0795
     20 C          19.7989   70.7567   -7.1706 C.ar    1  UNL1        0.0869
     21 O          16.3440   70.8370   -7.0011 O.2     1  UNL1       -0.2464
     22 O          18.9766   70.2766  -10.5308 O.2     1  UNL1       -0.2670
     23 H          16.8273   70.4872   -9.3646 H       1  UNL1        0.1734
     24 O          23.0064   72.4261    0.1718 O.3     1  UNL1       -0.2703
     25 P          22.2970   72.6238    1.6025 P.3     1  UNL1        0.2208
     26 O          22.5537   71.4375    2.4485 O.2     1  UNL1       -0.5170
     27 O          20.7102   72.8012    1.3956 O.3     1  UNL1       -0.4371
     28 O          22.8927   73.9347    2.3217 O.3     1  UNL1       -0.2865
     29 C          23.1460   73.5818    3.6827 C.3     1  UNL1        0.2611
     30 C          22.2196   74.3885    4.5944 C.3     1  UNL1        0.1582
     31 C          22.4704   75.8835    4.3674 C.3     1  UNL1        0.1625
     32 C          23.9664   76.1624    4.5468 C.3     1  UNL1        0.1686
     33 C          24.7610   75.2238    3.6363 C.3     1  UNL1        0.1760
     34 O          21.7209   76.6443    5.3166 O.3     1  UNL1       -0.3801
     35 O          24.2450   77.5193    4.1967 O.3     1  UNL1       -0.3794
     36 O          24.5062   73.8680    4.0013 O.3     1  UNL1       -0.3263
     37 H          21.9076   77.5762    5.1377 H       1  UNL1        0.2105
     38 H          25.1953   77.6514    4.3230 H       1  UNL1        0.2105
     39 C          19.8922   74.0949    5.2511 C.2     1  UNL1        0.2231
     40 C          18.4568   73.7682    4.9267 C.3     1  UNL1        0.0946
     41 N          20.8250   74.0716    4.2797 N.am    1  UNL1       -0.2994
     42 O          20.2077   74.3783    6.3870 O.2     1  UNL1       -0.2751
     43 H          20.5729   73.8447    3.3706 H       1  UNL1        0.1496
     44 C          26.2556   75.5165    3.7838 C.3     1  UNL1        0.1693
     45 O          26.5382   75.8844    5.1354 O.3     1  UNL1       -0.3794
     46 H          27.4875   76.0602    5.1849 H       1  UNL1        0.2105
@<TRIPOS>BOND
     1    29    30    1
     2    29    28    1
     3    29    36    1
     4    30    31    1
     5    30    41    1
     6    31    32    1
     7    31    34    1
     8    32    33    1
     9    32    35    1
    10    33    44    1
    11    33    36    1
    12    44    45    1
    13    39    40    1
    14    39    41   am
    15    39    42    2
    16    41    43    1
    17    28    25    1
    18    34    37    1
    19    35    38    1
    20    45    46    1
    21    15    16   ar
    22    15    20   ar
    23    15     6    1
    24    16    17   ar
    25    16    21    2
    26    17    18   ar
    27    17    23    1
    28    18    19   ar
    29    18    22    2
    30    19    20   ar
    31     6     7    1
    32     6    11    1
    33     7     8    1
    34     7     9    1
    35     8    13    1
    36     9    10    1
    37     9    12    1
    38    10    11    1
    39    10     5    1
    40    12    14    1
    41     5     4    1
    42     4     1    1
    43     1     2    2
    44     1     3    1
    45     1    24    1
    46    24    25    1
    47    25    26    2
    48    25    27    1
@<TRIPOS>MOLECULE
UD1
 46 48 0 0 0
SMALL
GASTEIGER

@<TRIPOS>ATOM
      1 P          22.8280   71.8981   -3.3411 P.3     1  UNL1        0.2189
      2 O          23.4346   70.5690   -3.1079 O.2     1  UNL1       -0.5170
      3 O          23.8629   72.8250   -4.1550 O.3     1  UNL1       -0.4371
      4 O          22.4891   72.5884   -1.9263 O.3     1  UNL1       -0.3112
      5 C          21.9219   71.5738   -1.0961 C.3     1  UNL1        0.1811
      6 C          21.6460   73.4966    1.9294 C.3     1  UNL1        0.2383
      7 C          21.4477   74.5306    0.7929 C.3     1  UNL1        0.1895
      8 O          20.5823   75.5876    1.2089 O.3     1  UNL1       -0.3779
      9 C          20.7814   73.6734   -0.3146 C.3     1  UNL1        0.1713
     10 C          21.1562   72.2255    0.0564 C.3     1  UNL1        0.1764
     11 O          21.9901   72.2839    1.2262 O.3     1  UNL1       -0.3308
     12 O          19.3632   73.8497   -0.2985 O.3     1  UNL1       -0.3794
     13 H          20.5010   76.1943    0.4600 H       1  UNL1        0.2106
     14 H          19.1959   74.7846   -0.4777 H       1  UNL1        0.2105
     15 N          22.7346   73.9043    2.8184 N.ar    1  UNL1       -0.2551
     16 C          22.7107   73.5391    4.1120 C.ar    1  UNL1        0.3323
     17 N          23.7004   73.8965    4.9515 N.ar    1  UNL1       -0.2743
     18 C          24.7337   74.6396    4.5065 C.ar    1  UNL1        0.2626
     19 C          24.7684   75.0361    3.1484 C.ar    1  UNL1        0.0795
     20 C          23.7653   74.6592    2.3269 C.ar    1  UNL1        0.0869
     21 O          21.7855   72.8687    4.5283 O.2     1  UNL1       -0.2464
     22 O          25.6267   74.9674    5.2658 O.2     1  UNL1       -0.2670
     23 H          23.6694   73.6202    5.8805 H       1  UNL1        0.1734
     24 O          21.4738   71.7281   -4.1930 O.3     1  UNL1       -0.2703
     25 P          21.4606   72.9092   -5.2858 P.3     1  UNL1        0.2208
     26 O          22.6995   72.8487   -6.0923 O.2     1  UNL1       -0.5170
     27 O          21.3770   74.3324   -4.5379 O.3     1  UNL1       -0.4371
     28 O          20.1838   72.7356   -6.2502 O.3     1  UNL1       -0.2865
     29 C          20.3238   71.4708   -6.8997 C.3     1  UNL1        0.2611
     30 C          20.2789   71.6735   -8.4152 C.3     1  UNL1        0.1582
     31 C          18.9472   72.3317   -8.7936 C.3     1  UNL1        0.1625
     32 C          17.8036   71.4925   -8.2139 C.3     1  UNL1        0.1686
     33 C          18.0337   71.3060   -6.7127 C.3     1  UNL1        0.1760
     34 O          18.8292   72.3901  -10.2163 O.3     1  UNL1       -0.3801
     35 O          16.5612   72.1648   -8.4285 O.3     1  UNL1       -0.3794
     36 O          19.2607   70.6104   -6.4958 O.3     1  UNL1       -0.3263
     37 H          17.9797   72.8103  -10.4092 H       1  UNL1        0.2105
     38 H          15.8703   71.6038   -8.0485 H       1  UNL1        0.2105
     39 C          21.2022   73.8669   -8.9354 C.2     1  UNL1        0.2231
     40 C          22.3436   74.7555   -9.3598 C.3     1  UNL1        0.0946
     41 N          21.3874   72.5372   -8.8270 N.am    1  UNL1       -0.2994
     42 O          20.1166   74.3491   -8.6921 O.2     1  UNL1       -0.2751
     43 H          22.2560   72.1511   -9.0219 H       1  UNL1        0.1496
     44 C          16.8797   70.4964   -6.1178 C.3     1  UNL1        0.1693
     45 O          16.4787   71.0792   -4.8762 O.3     1  UNL1       -0.3794
     46 H          15.7519   70.5401   -4.5358 H       1  UNL1        0.2105
@<TRIPOS>BOND
     1    29    30    1
     2    29    28    1
     3    29    36    1
     4    30    31    1
     5    30    41    1
     6    31    32    1
     7    31    34    1
     8    32    33    1
     9    32    35    1
    10    33    44    1
    11    33    36    1
    12    44    45    1
    13    39    40    1
    14    39    41   am
    15    39    42    2
    16    41    43    1
    17    28    25    1
    18    34    37    1
    19    35    38    1
    20    45    46    1
    21    15    16   ar
    22    15    20   ar
    23    15     6    1
    24    16    17   ar
    25    16    21    2
    26    17    18   ar
    27    17    23    1
    28    18    19   ar
    29    18    22    2
    30    19    20   ar
    31     6     7    1
    32     6    11    1
    33     7     8    1
    34     7     9    1
    35     8    13    1
    36     9    10    1
    37     9    12    1
    38    10    11    1
    39    10     5    1
    40    12    14    1
    41     5     4    1
    42     4     1    1
    43     1     2    2
    44     1     3    1
    45     1    24    1
    46    24    25    1
    47    25    26    2
    48    25    27    1
@<TRIPOS>MOLECULE
UD1
 46 48 0 0 0
SMALL
GASTEIGER

@<TRIPOS>ATOM
      1 P          22.8165   72.8443   -3.0092 P.3     1  UNL1        0.2189
      2 O          23.6318   73.9482   -3.5618 O.2     1  UNL1       -0.5170
      3 O          23.3587   71.4393   -3.5789 O.3     1  UNL1       -0.4371
      4 O          21.2794   73.0423   -3.4464 O.3     1  UNL1       -0.3112
      5 C          20.5229   72.0406   -2.7648 C.3     1  UNL1        0.1811
      6 C          18.1161   71.3200   -5.3368 C.3     1  UNL1        0.2383
      7 C          18.1563   70.0353   -4.4718 C.3     1  UNL1        0.1895
      8 O          16.8885   69.3780   -4.4737 O.3     1  UNL1       -0.3779
      9 C          18.4847   70.5999   -3.0652 C.3     1  UNL1        0.1713
     10 C          19.1121   71.9778   -3.3520 C.3     1  UNL1        0.1764
     11 O          19.1695   72.1349   -4.7801 O.3     1  UNL1       -0.3308
     12 O          17.2918   70.7377   -2.2903 O.3     1  UNL1       -0.3794
     13 H          16.9807   68.5900   -3.9205 H       1  UNL1        0.2106
     14 H          16.9159   69.8523   -2.1965 H       1  UNL1        0.2105
     15 N          18.3904   71.0100   -6.7404 N.ar    1  UNL1       -0.2551
     16 C          17.3693   70.7744   -7.5825 C.ar    1  UNL1        0.3323
     17 N          17.5918   70.4907   -8.8795 N.ar    1  UNL1       -0.2743
     18 C          18.8520   70.4290   -9.3550 C.ar    1  UNL1        0.2626
     19 C          19.9365   70.6690   -8.4780 C.ar    1  UNL1        0.0795
     20 C          19.6846   70.9566   -7.1830 C.ar    1  UNL1        0.0869
     21 O          16.2271   70.8265   -7.1687 O.2     1  UNL1       -0.2464
     22 O          19.0546   70.1679  -10.5264 O.2     1  UNL1       -0.2670
     23 H          16.8432   70.3282   -9.4739 H       1  UNL1        0.1734
     24 O          22.9225   72.8504   -1.4037 O.3     1  UNL1       -0.2703
     25 P          22.9591   74.3926   -0.9460 P.3     1  UNL1        0.2208
     26 O          22.1718   75.2080   -1.8969 O.2     1  UNL1       -0.5170
     27 O          24.4830   74.9120   -0.9286 O.3     1  UNL1       -0.4371
     28 O          22.3296   74.5311    0.5288 O.3     1  UNL1       -0.2865
     29 C          23.1987   73.8276    1.4181 C.3     1  UNL1        0.2611
     30 C          22.4380   72.6601    2.0491 C.3     1  UNL1        0.1582
     31 C          21.2188   73.2045    2.8020 C.3     1  UNL1        0.1625
     32 C          21.6902   74.2823    3.7839 C.3     1  UNL1        0.1686
     33 C          22.5049   75.3293    3.0213 C.3     1  UNL1        0.1760
     34 O          20.5854   72.1432    3.5187 O.3     1  UNL1       -0.3801
     35 O          20.5563   74.9056    4.3900 O.3     1  UNL1       -0.3794
     36 O          23.6531   74.7152    2.4374 O.3     1  UNL1       -0.3263
     37 H          19.8257   72.5293    3.9760 H       1  UNL1        0.2105
     38 H          20.8977   75.5762    4.9985 H       1  UNL1        0.2105
     39 C          22.4641   70.4768    0.9689 C.2     1  UNL1        0.2231
     40 C          22.0089   69.5295   -0.1117 C.3     1  UNL1        0.0946
     41 N          21.9957   71.7393    0.9999 N.am    1  UNL1       -0.2994
     42 O          23.2528   70.1026    1.8104 O.2     1  UNL1       -0.2751
     43 H          21.3647   72.0390    0.3265 H       1  UNL1        0.1496
     44 C          22.9532   76.4278    3.9874 C.3     1  UNL1        0.1693
     45 O          24.1161   77.0750    3.4670 O.3     1  UNL1       -0.3794
     46 H          24.3651   77.7579    4.1044 H       1  UNL1        0.2105
@<TRIPOS>BOND
     1    29    30    1
     2    29    28    1
     3    29    36    1
     4    30    31    1
     5    30    41    1
     6    31    32    1
     7    31    34    1
     8    32    33    1
     9    32    35    1
    10    33    44    1
    11    33    36    1
    12    44    45    1
    13    39    40    1
    14    39    41   am
    15    39    42    2
    16    41    43    1
    17    28    25    1
    18    34    37    1
    19    35    38    1
    20    45    46    1
    21    15    16   ar
    22    15    20   ar
    23    15     6    1
    24    16    17   ar
    25    16    21    2
    26    17    18   ar
    27    17    23    1
    28    18    19   ar
    29    18    22    2
    30    19    20   ar
    31     6     7    1
    32     6    11    1
    33     7     8    1
    34     7     9    1
    35     8    13    1
    36     9    10    1
    37     9    12    1
    38    10    11    1
    39    10     5    1
    40    12    14    1
    41     5     4    1
    42     4     1    1
    43     1     2    2
    44     1     3    1
    45     1    24    1
    46    24    25    1
    47    25    26    2
    48    25    27    1
@<TRIPOS>MOLECULE
UD1
 46 48 0 0 0
SMALL
GASTEIGER

@<TRIPOS>ATOM
      1 P          22.5937   71.1526   -2.3781 P.3     1  UNL1        0.2189
      2 O          21.8463   72.3710   -1.9964 O.2     1  UNL1       -0.5170
      3 O          23.6341   71.5077   -3.5546 O.3     1  UNL1       -0.4371
      4 O          21.5614   70.0308   -2.8965 O.3     1  UNL1       -0.3112
      5 C          20.8173   70.6158   -3.9663 C.3     1  UNL1        0.1811
      6 C          17.3269   71.1326   -4.6568 C.3     1  UNL1        0.2383
      7 C          17.5737   69.6419   -4.9990 C.3     1  UNL1        0.1895
      8 O          16.4005   68.8625   -4.7639 O.3     1  UNL1       -0.3779
      9 C          18.6998   69.2613   -4.0030 C.3     1  UNL1        0.1713
     10 C          19.3289   70.6133   -3.6146 C.3     1  UNL1        0.1764
     11 O          18.6479   71.6347   -4.3631 O.3     1  UNL1       -0.3308
     12 O          18.1529   68.6085   -2.8551 O.3     1  UNL1       -0.3794
     13 H          16.6197   67.9494   -4.9957 H       1  UNL1        0.2106
     14 H          17.7231   67.8024   -3.1706 H       1  UNL1        0.2105
     15 N          16.7486   71.8392   -5.8004 N.ar    1  UNL1       -0.2551
     16 C          17.0043   71.4090   -7.0481 C.ar    1  UNL1        0.3323
     17 N          16.4827   72.0371   -8.1185 N.ar    1  UNL1       -0.2743
     18 C          15.6975   73.1208   -7.9544 C.ar    1  UNL1        0.2626
     19 C          15.4250   73.5880   -6.6466 C.ar    1  UNL1        0.0795
     20 C          15.9568   72.9359   -5.5905 C.ar    1  UNL1        0.0869
     21 O          17.7107   70.4329   -7.2124 O.2     1  UNL1       -0.2464
     22 O          15.2292   73.6924   -8.9216 O.2     1  UNL1       -0.2670
     23 H          16.6738   71.7102   -9.0111 H       1  UNL1        0.1734
     24 O          23.3967   70.5935   -1.1009 O.3     1  UNL1       -0.2703
     25 P          22.3861   70.6603    0.1495 P.3     1  UNL1        0.2208
     26 O          22.8755   69.7727    1.2271 O.2     1  UNL1       -0.5170
     27 O          20.9218   70.1801   -0.3169 O.3     1  UNL1       -0.4371
     28 O          22.3048   72.1723    0.6952 O.3     1  UNL1       -0.2865
     29 C          21.0221   72.3243    1.3056 C.3     1  UNL1        0.2611
     30 C          20.5461   73.7672    1.1281 C.3     1  UNL1        0.1582
     31 C          21.5663   74.7141    1.7699 C.3     1  UNL1        0.1625
     32 C          21.7958   74.2771    3.2205 C.3     1  UNL1        0.1686
     33 C          22.1807   72.7962    3.2399 C.3     1  UNL1        0.1760
     34 O          21.0621   76.0507    1.7430 O.3     1  UNL1       -0.3801
     35 O          22.8499   75.0538    3.7926 O.3     1  UNL1       -0.3794
     36 O          21.1185   72.0149    2.6943 O.3     1  UNL1       -0.3263
     37 H          21.7339   76.6111    2.1551 H       1  UNL1        0.2105
     38 H          22.9615   74.7461    4.7033 H       1  UNL1        0.2105
     39 C          19.2431   74.4725   -0.8056 C.2     1  UNL1        0.2231
     40 C          19.1188   74.7846   -2.2751 C.3     1  UNL1        0.0946
     41 N          20.4249   74.0710   -0.2993 N.am    1  UNL1       -0.2994
     42 O          18.2787   74.5821   -0.0788 O.2     1  UNL1       -0.2751
     43 H          21.1967   73.9829   -0.8808 H       1  UNL1        0.1496
     44 C          22.4438   72.3578    4.6820 C.3     1  UNL1        0.1693
     45 O          21.5048   72.9926    5.5522 O.3     1  UNL1       -0.3794
     46 H          21.7052   72.6904    6.4484 H       1  UNL1        0.2105
@<TRIPOS>BOND
     1    29    30    1
     2    29    28    1
     3    29    36    1
     4    30    31    1
     5    30    41    1
     6    31    32    1
     7    31    34    1
     8    32    33    1
     9    32    35    1
    10    33    44    1
    11    33    36    1
    12    44    45    1
    13    39    40    1
    14    39    41   am
    15    39    42    2
    16    41    43    1
    17    28    25    1
    18    34    37    1
    19    35    38    1
    20    45    46    1
    21    15    16   ar
    22    15    20   ar
    23    15     6    1
    24    16    17   ar
    25    16    21    2
    26    17    18   ar
    27    17    23    1
    28    18    19   ar
    29    18    22    2
    30    19    20   ar
    31     6     7    1
    32     6    11    1
    33     7     8    1
    34     7     9    1
    35     8    13    1
    36     9    10    1
    37     9    12    1
    38    10    11    1
    39    10     5    1
    40    12    14    1
    41     5     4    1
    42     4     1    1
    43     1     2    2
    44     1     3    1
    45     1    24    1
    46    24    25    1
    47    25    26    2
    48    25    27    1
@<TRIPOS>MOLECULE
UD1
 46 48 0 0 0
SMALL
GASTEIGER

@<TRIPOS>ATOM
      1 P          20.0536   70.8978   -2.8301 P.3     1  UNL1        0.2189
      2 O          19.5016   72.1817   -2.3447 O.2     1  UNL1       -0.5170
      3 O          21.4677   71.1608   -3.5537 O.3     1  UNL1       -0.4371
      4 O          19.0286   70.2370   -3.8816 O.3     1  UNL1       -0.3112
      5 C          17.8047   70.9665   -3.7809 C.3     1  UNL1        0.1811
      6 C          18.6104   72.4188   -6.9698 C.3     1  UNL1        0.2383
      7 C          18.4506   70.9057   -7.2616 C.3     1  UNL1        0.1895
      8 O          17.9697   70.6891   -8.5886 O.3     1  UNL1       -0.3779
      9 C          17.3898   70.4820   -6.2126 C.3     1  UNL1        0.1713
     10 C          17.4648   71.5841   -5.1382 C.3     1  UNL1        0.1764
     11 O          18.5016   72.4988   -5.5326 O.3     1  UNL1       -0.3308
     12 O          16.0897   70.4393   -6.8048 O.3     1  UNL1       -0.3794
     13 H          17.8930   69.7321   -8.7061 H       1  UNL1        0.2106
     14 H          16.1242   69.7755   -7.5065 H       1  UNL1        0.2105
     15 N          19.9190   72.8985   -7.4158 N.ar    1  UNL1       -0.2551
     16 C          20.0014   73.7190   -8.4775 C.ar    1  UNL1        0.3323
     17 N          21.1914   74.1787   -8.9075 N.ar    1  UNL1       -0.2743
     18 C          22.3278   73.8131   -8.2807 C.ar    1  UNL1        0.2626
     19 C          22.2560   72.9450   -7.1653 C.ar    1  UNL1        0.0795
     20 C          21.0489   72.5031   -6.7519 C.ar    1  UNL1        0.0869
     21 O          18.9854   74.0578   -9.0533 O.2     1  UNL1       -0.2464
     22 O          23.4046   74.2244   -8.6715 O.2     1  UNL1       -0.2670
     23 H          21.2318   74.7737   -9.6721 H       1  UNL1        0.1734
     24 O          20.2637   69.8993   -1.5860 O.3     1  UNL1       -0.2703
     25 P          21.5486   70.4301   -0.7758 P.3     1  UNL1        0.2208
     26 O          22.7818   70.0113   -1.4777 O.2     1  UNL1       -0.5170
     27 O          21.5409   69.8100    0.7100 O.3     1  UNL1       -0.4371
     28 O          21.5018   72.0364   -0.6856 O.3     1  UNL1       -0.2865
     29 C          22.8240   72.4722   -0.3646 C.3     1  UNL1        0.2611
     30 C          22.7469   73.6138    0.6508 C.3     1  UNL1        0.1582
     31 C          21.9288   74.7632    0.0515 C.3     1  UNL1        0.1625
     32 C          22.5318   75.1380   -1.3065 C.3     1  UNL1        0.1686
     33 C          22.6223   73.8818   -2.1754 C.3     1  UNL1        0.1760
     34 O          21.9748   75.8912    0.9273 O.3     1  UNL1       -0.3801
     35 O          21.6993   76.1058   -1.9483 O.3     1  UNL1       -0.3794
     36 O          23.4752   72.9235   -1.5502 O.3     1  UNL1       -0.3263
     37 H          21.4485   76.5885    0.5126 H       1  UNL1        0.2105
     38 H          22.1143   76.3124   -2.7978 H       1  UNL1        0.2105
     39 C          22.6216   73.4471    3.0778 C.2     1  UNL1        0.2231
     40 C          21.9557   72.9562    4.3379 C.3     1  UNL1        0.0946
     41 N          22.1001   73.1376    1.8752 N.am    1  UNL1       -0.2994
     42 O          23.6277   74.1203    3.1465 O.2     1  UNL1       -0.2751
     43 H          21.2951   72.5986    1.8199 H       1  UNL1        0.1496
     44 C          23.1933   74.2512   -3.5460 C.3     1  UNL1        0.1693
     45 O          23.8248   73.1068   -4.1236 O.3     1  UNL1       -0.3794
     46 H          24.1704   73.3820   -4.9835 H       1  UNL1        0.2105
@<TRIPOS>BOND
     1    29    30    1
     2    29    28    1
     3    29    36    1
     4    30    31    1
     5    30    41    1
     6    31    32    1
     7    31    34    1
     8    32    33    1
     9    32    35    1
    10    33    44    1
    11    33    36    1
    12    44    45    1
    13    39    40    1
    14    39    41   am
    15    39    42    2
    16    41    43    1
    17    28    25    1
    18    34    37    1
    19    35    38    1
    20    45    46    1
    21    15    16   ar
    22    15    20   ar
    23    15     6    1
    24    16    17   ar
    25    16    21    2
    26    17    18   ar
    27    17    23    1
    28    18    19   ar
    29    18    22    2
    30    19    20   ar
    31     6     7    1
    32     6    11    1
    33     7     8    1
    34     7     9    1
    35     8    13    1
    36     9    10    1
    37     9    12    1
    38    10    11    1
    39    10     5    1
    40    12    14    1
    41     5     4    1
    42     4     1    1
    43     1     2    2
    44     1     3    1
    45     1    24    1
    46    24    25    1
    47    25    26    2
    48    25    27    1
@<TRIPOS>MOLECULE
UD1
 46 48 0 0 0
SMALL
GASTEIGER

@<TRIPOS>ATOM
      1 P          20.0183   70.2374   -2.4043 P.3     1  UNL1        0.2189
      2 O          21.1980   69.3684   -2.6093 O.2     1  UNL1       -0.5170
      3 O          18.7062   69.3242   -2.2113 O.3     1  UNL1       -0.4371
      4 O          19.8242   71.1894   -3.6883 O.3     1  UNL1       -0.3112
      5 C          19.4898   72.4874   -3.1944 C.3     1  UNL1        0.1811
      6 C          18.3501   73.0439   -6.5587 C.3     1  UNL1        0.2383
      7 C          17.1097   72.4874   -5.8157 C.3     1  UNL1        0.1895
      8 O          15.9034   73.0144   -6.3691 O.3     1  UNL1       -0.3779
      9 C          17.3320   73.0114   -4.3731 C.3     1  UNL1        0.1713
     10 C          18.8429   73.3080   -4.3112 C.3     1  UNL1        0.1764
     11 O          19.4061   72.9358   -5.5806 O.3     1  UNL1       -0.3308
     12 O          16.5724   74.2014   -4.1505 O.3     1  UNL1       -0.3794
     13 H          15.1727   72.6304   -5.8650 H       1  UNL1        0.2106
     14 H          15.6422   73.9639   -4.2615 H       1  UNL1        0.2105
     15 N          18.6549   72.2345   -7.7391 N.ar    1  UNL1       -0.2551
     16 C          19.0539   72.8349   -8.8738 C.ar    1  UNL1        0.3323
     17 N          19.3448   72.1152   -9.9736 N.ar    1  UNL1       -0.2743
     18 C          19.2306   70.7718   -9.9564 C.ar    1  UNL1        0.2626
     19 C          18.8059   70.1272   -8.7702 C.ar    1  UNL1        0.0795
     20 C          18.5257   70.8730   -7.6800 C.ar    1  UNL1        0.0869
     21 O          19.1618   74.0457   -8.9050 O.2     1  UNL1       -0.2464
     22 O          19.4887   70.1204  -10.9516 O.2     1  UNL1       -0.2670
     23 H          19.6357   72.5645  -10.7821 H       1  UNL1        0.1734
     24 O          20.2403   71.1434   -1.0933 O.3     1  UNL1       -0.2703
     25 P          21.7095   70.7998   -0.5341 P.3     1  UNL1        0.2208
     26 O          22.6403   70.6215   -1.6702 O.2     1  UNL1       -0.5170
     27 O          21.6518   69.4422    0.3295 O.3     1  UNL1       -0.4371
     28 O          22.2258   72.0057    0.3984 O.3     1  UNL1       -0.2865
     29 C          21.1302   72.9099    0.5510 C.3     1  UNL1        0.2611
     30 C          21.5596   74.3054    0.0946 C.3     1  UNL1        0.1582
     31 C          22.7581   74.7607    0.9347 C.3     1  UNL1        0.1625
     32 C          22.3898   74.6444    2.4176 C.3     1  UNL1        0.1686
     33 C          21.9005   73.2222    2.6994 C.3     1  UNL1        0.1760
     34 O          23.0742   76.1185    0.6216 O.3     1  UNL1       -0.3801
     35 O          23.5394   74.9234    3.2190 O.3     1  UNL1       -0.3794
     36 O          20.7360   72.9498    1.9208 O.3     1  UNL1       -0.3263
     37 H          23.8317   76.3629    1.1709 H       1  UNL1        0.2105
     38 H          23.2637   74.8383    4.1427 H       1  UNL1        0.2105
     39 C          23.2342   74.1338   -1.6663 C.2     1  UNL1        0.2231
     40 C          23.6244   74.0910   -3.1217 C.3     1  UNL1        0.0946
     41 N          21.9392   74.2632   -1.3191 N.am    1  UNL1       -0.2994
     42 O          24.0862   74.0524   -0.8075 O.2     1  UNL1       -0.2751
     43 H          21.2572   74.3286   -2.0062 H       1  UNL1        0.1496
     44 C          21.5606   73.0861    4.1850 C.3     1  UNL1        0.1693
     45 O          22.0853   71.8538    4.6832 O.3     1  UNL1       -0.3794
     46 H          21.8495   71.8075    5.6196 H       1  UNL1        0.2105
@<TRIPOS>BOND
     1    29    30    1
     2    29    28    1
     3    29    36    1
     4    30    31    1
     5    30    41    1
     6    31    32    1
     7    31    34    1
     8    32    33    1
     9    32    35    1
    10    33    44    1
    11    33    36    1
    12    44    45    1
    13    39    40    1
    14    39    41   am
    15    39    42    2
    16    41    43    1
    17    28    25    1
    18    34    37    1
    19    35    38    1
    20    45    46    1
    21    15    16   ar
    22    15    20   ar
    23    15     6    1
    24    16    17   ar
    25    16    21    2
    26    17    18   ar
    27    17    23    1
    28    18    19   ar
    29    18    22    2
    30    19    20   ar
    31     6     7    1
    32     6    11    1
    33     7     8    1
    34     7     9    1
    35     8    13    1
    36     9    10    1
    37     9    12    1
    38    10    11    1
    39    10     5    1
    40    12    14    1
    41     5     4    1
    42     4     1    1
    43     1     2    2
    44     1     3    1
    45     1    24    1
    46    24    25    1
    47    25    26    2
    48    25    27    1
@<TRIPOS>MOLECULE
UD1
 46 48 0 0 0
SMALL
GASTEIGER

@<TRIPOS>ATOM
      1 P          19.2683   72.0770   -2.4109 P.3     1  UNL1        0.2189
      2 O          17.8008   72.0379   -2.2279 O.2     1  UNL1       -0.5170
      3 O          19.7880   70.6308   -2.8914 O.3     1  UNL1       -0.4371
      4 O          19.9725   72.4626   -1.0151 O.3     1  UNL1       -0.3112
      5 C          21.0945   73.2881   -1.3317 C.3     1  UNL1        0.1811
      6 C          23.0483   72.4805    1.5765 C.3     1  UNL1        0.2383
      7 C          22.3018   71.1670    1.2333 C.3     1  UNL1        0.1895
      8 O          23.0735   70.0267    1.6119 O.3     1  UNL1       -0.3779
      9 C          22.1718   71.2598   -0.3093 C.3     1  UNL1        0.1713
     10 C          22.3357   72.7624   -0.6091 C.3     1  UNL1        0.1764
     11 O          22.4905   73.4375    0.6509 O.3     1  UNL1       -0.3308
     12 O          23.2028   70.5009   -0.9449 O.3     1  UNL1       -0.3794
     13 H          22.5552   69.2458    1.3730 H       1  UNL1        0.2106
     14 H          23.0820   69.5818   -0.6714 H       1  UNL1        0.2105
     15 N          22.7825   72.8832    2.9580 N.ar    1  UNL1       -0.2551
     16 C          21.6080   72.5665    3.5301 C.ar    1  UNL1        0.3323
     17 N          21.3380   72.9206    4.8006 N.ar    1  UNL1       -0.2743
     18 C          22.2446   73.6115    5.5207 C.ar    1  UNL1        0.2626
     19 C          23.4829   73.9567    4.9287 C.ar    1  UNL1        0.0795
     20 C          23.7298   73.5843    3.6545 C.ar    1  UNL1        0.0869
     21 O          20.7801   71.9435    2.8936 O.2     1  UNL1       -0.2464
     22 O          21.9997   73.9363    6.6678 O.2     1  UNL1       -0.2670
     23 H          20.4874   72.6796    5.1989 H       1  UNL1        0.1734
     24 O          19.6414   73.1789   -3.5224 O.3     1  UNL1       -0.2703
     25 P          19.3343   72.5157   -4.9560 P.3     1  UNL1        0.2208
     26 O          18.0402   73.0201   -5.4657 O.2     1  UNL1       -0.5170
     27 O          19.2626   70.9145   -4.8030 O.3     1  UNL1       -0.4371
     28 O          20.5057   72.9026   -5.9897 O.3     1  UNL1       -0.2865
     29 C          19.9103   73.7085   -7.0081 C.3     1  UNL1        0.2611
     30 C          20.5251   73.3478   -8.3616 C.3     1  UNL1        0.1582
     31 C          22.0389   73.5814   -8.3027 C.3     1  UNL1        0.1625
     32 C          22.2953   75.0169   -7.8318 C.3     1  UNL1        0.1686
     33 C          21.5493   75.2507   -6.5165 C.3     1  UNL1        0.1760
     34 O          22.6035   73.3918   -9.6014 O.3     1  UNL1       -0.3801
     35 O          23.6965   75.2103   -7.6291 O.3     1  UNL1       -0.3794
     36 O          20.1468   75.0853   -6.7217 O.3     1  UNL1       -0.3263
     37 H          23.5543   73.5479   -9.5182 H       1  UNL1        0.2105
     38 H          23.8128   76.1243   -7.3332 H       1  UNL1        0.2105
     39 C          19.3928   71.6113   -9.6409 C.2     1  UNL1        0.2231
     40 C          19.1171   70.1617   -9.9491 C.3     1  UNL1        0.0946
     41 N          20.2573   71.9398   -8.6617 N.am    1  UNL1       -0.2994
     42 O          18.8358   72.4824  -10.2743 O.2     1  UNL1       -0.2751
     43 H          20.7031   71.2429   -8.1545 H       1  UNL1        0.1496
     44 C          21.8252   76.6717   -6.0208 C.3     1  UNL1        0.1693
     45 O          20.6543   77.1916   -5.3878 O.3     1  UNL1       -0.3794
     46 H          20.8703   78.0861   -5.0911 H       1  UNL1        0.2105
@<TRIPOS>BOND
     1    29    30    1
     2    29    28    1
     3    29    36    1
     4    30    31    1
     5    30    41    1
     6    31    32    1
     7    31    34    1
     8    32    33    1
     9    32    35    1
    10    33    44    1
    11    33    36    1
    12    44    45    1
    13    39    40    1
    14    39    41   am
    15    39    42    2
    16    41    43    1
    17    28    25    1
    18    34    37    1
    19    35    38    1
    20    45    46    1
    21    15    16   ar
    22    15    20   ar
    23    15     6    1
    24    16    17   ar
    25    16    21    2
    26    17    18   ar
    27    17    23    1
    28    18    19   ar
    29    18    22    2
    30    19    20   ar
    31     6     7    1
    32     6    11    1
    33     7     8    1
    34     7     9    1
    35     8    13    1
    36     9    10    1
    37     9    12    1
    38    10    11    1
    39    10     5    1
    40    12    14    1
    41     5     4    1
    42     4     1    1
    43     1     2    2
    44     1     3    1
    45     1    24    1
    46    24    25    1
    47    25    26    2
    48    25    27    1
@<TRIPOS>MOLECULE
UD1
 46 48 0 0 0
SMALL
GASTEIGER

@<TRIPOS>ATOM
      1 P          21.5074   73.1000   -5.5197 P.3     1  UNL1        0.2189
      2 O          21.6122   74.3585   -4.7490 O.2     1  UNL1       -0.5170
      3 O          22.7434   72.9948   -6.5462 O.3     1  UNL1       -0.4371
      4 O          20.1242   73.0897   -6.3439 O.3     1  UNL1       -0.3112
      5 C          20.0276   71.8116   -6.9743 C.3     1  UNL1        0.1811
      6 C          16.8271   73.0020   -8.1001 C.3     1  UNL1        0.2383
      7 C          17.8457   73.6492   -9.0716 C.3     1  UNL1        0.1895
      8 O          17.2687   73.8413  -10.3636 O.3     1  UNL1       -0.3779
      9 C          18.9712   72.5834   -9.1210 C.3     1  UNL1        0.1713
     10 C          18.7642   71.7604   -7.8347 C.3     1  UNL1        0.1764
     11 O          17.6627   72.3479   -7.1214 O.3     1  UNL1       -0.3308
     12 O          18.8282   71.7581  -10.2791 O.3     1  UNL1       -0.3794
     13 H          17.9506   74.2459  -10.9176 H       1  UNL1        0.2106
     14 H          18.9079   72.3389  -11.0475 H       1  UNL1        0.2105
     15 N          15.9926   74.0233   -7.4662 N.ar    1  UNL1       -0.2551
     16 C          14.8421   74.4005   -8.0505 C.ar    1  UNL1        0.3323
     17 N          14.0527   75.3347   -7.4881 N.ar    1  UNL1       -0.2743
     18 C          14.4114   75.9174   -6.3263 C.ar    1  UNL1        0.2626
     19 C          15.6230   75.5341   -5.7034 C.ar    1  UNL1        0.0795
     20 C          16.3931   74.5906   -6.2866 C.ar    1  UNL1        0.0869
     21 O          14.5050   73.8841   -9.0986 O.2     1  UNL1       -0.2464
     22 O          13.7009   76.7656   -5.8193 O.2     1  UNL1       -0.2670
     23 H          13.2239   75.5912   -7.9210 H       1  UNL1        0.1734
     24 O          21.5394   71.8479   -4.5097 O.3     1  UNL1       -0.2703
     25 P          22.8120   72.0590   -3.5477 P.3     1  UNL1        0.2208
     26 O          23.8037   72.9235   -4.2245 O.2     1  UNL1       -0.5170
     27 O          23.4806   70.6314   -3.2201 O.3     1  UNL1       -0.4371
     28 O          22.3398   72.7561   -2.1761 O.3     1  UNL1       -0.2865
     29 C          21.1017   72.1466   -1.8062 C.3     1  UNL1        0.2611
     30 C          20.1921   73.1979   -1.1679 C.3     1  UNL1        0.1582
     31 C          20.8932   73.7878    0.0610 C.3     1  UNL1        0.1625
     32 C          21.3110   72.6392    0.9853 C.3     1  UNL1        0.1686
     33 C          22.1389   71.6315    0.1851 C.3     1  UNL1        0.1760
     34 O          19.9966   74.6603    0.7511 O.3     1  UNL1       -0.3801
     35 O          22.0943   73.1543    2.0636 O.3     1  UNL1       -0.3794
     36 O          21.3505   71.0946   -0.8763 O.3     1  UNL1       -0.3263
     37 H          20.4776   75.0082    1.5146 H       1  UNL1        0.2105
     38 H          22.3361   72.3997    2.6191 H       1  UNL1        0.2105
     39 C          18.6808   74.7814   -2.2369 C.2     1  UNL1        0.2231
     40 C          18.4008   75.8772   -3.2335 C.3     1  UNL1        0.0946
     41 N          19.9197   74.2627   -2.1355 N.am    1  UNL1       -0.2994
     42 O          17.7904   74.3661   -1.5263 O.2     1  UNL1       -0.2751
     43 H          20.6324   74.5947   -2.7042 H       1  UNL1        0.1496
     44 C          22.5887   70.4963    1.1072 C.3     1  UNL1        0.1693
     45 O          22.0034   69.2677    0.6712 O.3     1  UNL1       -0.3794
     46 H          22.3113   68.5805    1.2775 H       1  UNL1        0.2105
@<TRIPOS>BOND
     1    29    30    1
     2    29    28    1
     3    29    36    1
     4    30    31    1
     5    30    41    1
     6    31    32    1
     7    31    34    1
     8    32    33    1
     9    32    35    1
    10    33    44    1
    11    33    36    1
    12    44    45    1
    13    39    40    1
    14    39    41   am
    15    39    42    2
    16    41    43    1
    17    28    25    1
    18    34    37    1
    19    35    38    1
    20    45    46    1
    21    15    16   ar
    22    15    20   ar
    23    15     6    1
    24    16    17   ar
    25    16    21    2
    26    17    18   ar
    27    17    23    1
    28    18    19   ar
    29    18    22    2
    30    19    20   ar
    31     6     7    1
    32     6    11    1
    33     7     8    1
    34     7     9    1
    35     8    13    1
    36     9    10    1
    37     9    12    1
    38    10    11    1
    39    10     5    1
    40    12    14    1
    41     5     4    1
    42     4     1    1
    43     1     2    2
    44     1     3    1
    45     1    24    1
    46    24    25    1
    47    25    26    2
    48    25    27    1
@<TRIPOS>MOLECULE
UD1
 46 48 0 0 0
SMALL
GASTEIGER

@<TRIPOS>ATOM
      1 P          22.4283   71.0234   -2.6101 P.3     1  UNL1        0.2189
      2 O          21.5638   69.9589   -2.0548 O.2     1  UNL1       -0.5170
      3 O          23.7434   70.3613   -3.2618 O.3     1  UNL1       -0.4371
      4 O          22.8636   72.0300   -1.4311 O.3     1  UNL1       -0.3112
      5 C          22.2351   71.5640   -0.2360 C.3     1  UNL1        0.1811
      6 C          20.7766   73.8182    2.1555 C.3     1  UNL1        0.2383
      7 C          21.7565   74.6984    1.3398 C.3     1  UNL1        0.1895
      8 O          21.2891   76.0454    1.2610 O.3     1  UNL1       -0.3779
      9 C          21.7223   74.0184   -0.0536 C.3     1  UNL1        0.1713
     10 C          21.2090   72.5948    0.2370 C.3     1  UNL1        0.1764
     11 O          21.0263   72.4860    1.6590 O.3     1  UNL1       -0.3308
     12 O          20.8277   74.7113   -0.9266 O.3     1  UNL1       -0.3794
     13 H          21.9409   76.5383    0.7436 H       1  UNL1        0.2106
     14 H          21.1699   75.6102   -1.0210 H       1  UNL1        0.2105
     15 N          21.0730   73.8998    3.5862 N.ar    1  UNL1       -0.2551
     16 C          22.1049   73.2034    4.0937 C.ar    1  UNL1        0.3323
     17 N          22.4029   73.2626    5.4051 N.ar    1  UNL1       -0.2743
     18 C          21.6599   74.0198    6.2373 C.ar    1  UNL1        0.2626
     19 C          20.5670   74.7534    5.7173 C.ar    1  UNL1        0.0795
     20 C          20.2935   74.6801    4.3970 C.ar    1  UNL1        0.0869
     21 O          22.7844   72.5160    3.3558 O.2     1  UNL1       -0.2464
     22 O          21.9255   74.0704    7.4240 O.2     1  UNL1       -0.2670
     23 H          23.1538   72.7574    5.7532 H       1  UNL1        0.1734
     24 O          21.6202   71.8368   -3.7388 O.3     1  UNL1       -0.2703
     25 P          22.5997   73.0002   -4.2645 P.3     1  UNL1        0.2208
     26 O          23.9754   72.7401   -3.7860 O.2     1  UNL1       -0.5170
     27 O          22.0962   74.4219   -3.7011 O.3     1  UNL1       -0.4371
     28 O          22.5875   73.0274   -5.8737 O.3     1  UNL1       -0.2865
     29 C          21.5138   73.8845   -6.2656 C.3     1  UNL1        0.2611
     30 C          20.6077   73.1416   -7.2490 C.3     1  UNL1        0.1582
     31 C          21.4335   72.7166   -8.4684 C.3     1  UNL1        0.1625
     32 C          22.1389   73.9522   -9.0375 C.3     1  UNL1        0.1686
     33 C          22.9321   74.6323   -7.9196 C.3     1  UNL1        0.1760
     34 O          20.5705   72.1551   -9.4591 O.3     1  UNL1       -0.3801
     35 O          23.0282   73.5556  -10.0833 O.3     1  UNL1       -0.3794
     36 O          22.0434   75.0542   -6.8859 O.3     1  UNL1       -0.3263
     37 H          21.1302   71.9020  -10.2061 H       1  UNL1        0.2105
     38 H          23.4507   74.3618  -10.4119 H       1  UNL1        0.2105
     39 C          18.7885   71.9801   -6.1197 C.2     1  UNL1        0.2231
     40 C          18.2121   70.7590   -5.4497 C.3     1  UNL1        0.0946
     41 N          20.0472   71.9555   -6.5985 N.am    1  UNL1       -0.2994
     42 O          18.1192   72.9854   -6.2272 O.2     1  UNL1       -0.2751
     43 H          20.5831   71.1511   -6.5124 H       1  UNL1        0.1496
     44 C          23.6667   75.8496   -8.4851 C.3     1  UNL1        0.1693
     45 O          25.0088   75.4857   -8.8145 O.3     1  UNL1       -0.3794
     46 H          25.4355   76.2789   -9.1660 H       1  UNL1        0.2105
@<TRIPOS>BOND
     1    29    30    1
     2    29    28    1
     3    29    36    1
     4    30    31    1
     5    30    41    1
     6    31    32    1
     7    31    34    1
     8    32    33    1
     9    32    35    1
    10    33    44    1
    11    33    36    1
    12    44    45    1
    13    39    40    1
    14    39    41   am
    15    39    42    2
    16    41    43    1
    17    28    25    1
    18    34    37    1
    19    35    38    1
    20    45    46    1
    21    15    16   ar
    22    15    20   ar
    23    15     6    1
    24    16    17   ar
    25    16    21    2
    26    17    18   ar
    27    17    23    1
    28    18    19   ar
    29    18    22    2
    30    19    20   ar
    31     6     7    1
    32     6    11    1
    33     7     8    1
    34     7     9    1
    35     8    13    1
    36     9    10    1
    37     9    12    1
    38    10    11    1
    39    10     5    1
    40    12    14    1
    41     5     4    1
    42     4     1    1
    43     1     2    2
    44     1     3    1
    45     1    24    1
    46    24    25    1
    47    25    26    2
    48    25    27    1
@<TRIPOS>MOLECULE
UD1
 46 48 0 0 0
SMALL
GASTEIGER

@<TRIPOS>ATOM
      1 P          23.0732   72.9579   -3.7516 P.3     1  UNL1        0.2189
      2 O          23.4840   71.5375   -3.7013 O.2     1  UNL1       -0.5170
      3 O          24.3802   73.8968   -3.6985 O.3     1  UNL1       -0.4371
      4 O          22.1258   73.2869   -2.4919 O.3     1  UNL1       -0.3112
      5 C          22.9323   73.9781   -1.5368 C.3     1  UNL1        0.1811
      6 C          22.6021   72.5552    1.7486 C.3     1  UNL1        0.2383
      7 C          21.7406   71.6414    0.8414 C.3     1  UNL1        0.1895
      8 O          21.7249   70.3010    1.3337 O.3     1  UNL1       -0.3779
      9 C          22.4923   71.7248   -0.5125 C.3     1  UNL1        0.1713
     10 C          23.3148   73.0234   -0.4047 C.3     1  UNL1        0.1764
     11 O          23.0068   73.6228    0.8653 O.3     1  UNL1       -0.3308
     12 O          23.3503   70.5939   -0.6790 O.3     1  UNL1       -0.3794
     13 H          21.1740   69.7864    0.7277 H       1  UNL1        0.2106
     14 H          22.7836   69.8110   -0.6789 H       1  UNL1        0.2105
     15 N          21.8090   73.0787    2.8614 N.ar    1  UNL1       -0.2551
     16 C          20.6846   73.7714    2.6104 C.ar    1  UNL1        0.3323
     17 N          19.9334   74.2612    3.6144 N.ar    1  UNL1       -0.2743
     18 C          20.3052   74.0708    4.8964 C.ar    1  UNL1        0.2626
     19 C          21.4899   73.3484    5.1748 C.ar    1  UNL1        0.0795
     20 C          22.2217   72.8637    4.1488 C.ar    1  UNL1        0.0869
     21 O          20.3361   73.9514    1.4594 O.2     1  UNL1       -0.2464
     22 O          19.6293   74.5173    5.8049 O.2     1  UNL1       -0.2670
     23 H          19.1228   74.7545    3.4152 H       1  UNL1        0.1734
     24 O          22.2670   73.2354   -5.1161 O.3     1  UNL1       -0.2703
     25 P          20.7030   73.0779   -4.7722 P.3     1  UNL1        0.2208
     26 O          20.2307   74.2854   -4.0596 O.2     1  UNL1       -0.5170
     27 O          20.4858   71.7849   -3.8379 O.3     1  UNL1       -0.4371
     28 O          19.8677   72.8989   -6.1363 O.3     1  UNL1       -0.2865
     29 C          20.0702   71.5537   -6.5729 C.3     1  UNL1        0.2611
     30 C          20.1733   71.5281   -8.0989 C.3     1  UNL1        0.1582
     31 C          18.8849   72.1032   -8.6980 C.3     1  UNL1        0.1625
     32 C          17.6901   71.3432   -8.1123 C.3     1  UNL1        0.1686
     33 C          17.7728   71.3854   -6.5850 C.3     1  UNL1        0.1760
     34 O          18.9061   71.9476  -10.1181 O.3     1  UNL1       -0.3801
     35 O          16.4746   71.9580   -8.5437 O.3     1  UNL1       -0.3794
     36 O          18.9728   70.7477   -6.1493 O.3     1  UNL1       -0.3263
     37 H          18.0795   72.3220  -10.4526 H       1  UNL1        0.2105
     38 H          15.7499   71.4498   -8.1524 H       1  UNL1        0.2105
     39 C          21.1462   73.6374   -8.8326 C.2     1  UNL1        0.2231
     40 C          22.3235   74.4694   -9.2731 C.3     1  UNL1        0.0946
     41 N          21.3167   72.3369   -8.5264 N.am    1  UNL1       -0.2994
     42 O          20.0450   74.1387   -8.7544 O.2     1  UNL1       -0.2751
     43 H          22.1979   71.9354   -8.5890 H       1  UNL1        0.1496
     44 C          16.5663   70.6567   -5.9898 C.3     1  UNL1        0.1693
     45 O          16.1059   69.6657   -6.9107 O.3     1  UNL1       -0.3794
     46 H          15.3470   69.2314   -6.4983 H       1  UNL1        0.2105
@<TRIPOS>BOND
     1    29    30    1
     2    29    28    1
     3    29    36    1
     4    30    31    1
     5    30    41    1
     6    31    32    1
     7    31    34    1
     8    32    33    1
     9    32    35    1
    10    33    44    1
    11    33    36    1
    12    44    45    1
    13    39    40    1
    14    39    41   am
    15    39    42    2
    16    41    43    1
    17    28    25    1
    18    34    37    1
    19    35    38    1
    20    45    46    1
    21    15    16   ar
    22    15    20   ar
    23    15     6    1
    24    16    17   ar
    25    16    21    2
    26    17    18   ar
    27    17    23    1
    28    18    19   ar
    29    18    22    2
    30    19    20   ar
    31     6     7    1
    32     6    11    1
    33     7     8    1
    34     7     9    1
    35     8    13    1
    36     9    10    1
    37     9    12    1
    38    10    11    1
    39    10     5    1
    40    12    14    1
    41     5     4    1
    42     4     1    1
    43     1     2    2
    44     1     3    1
    45     1    24    1
    46    24    25    1
    47    25    26    2
    48    25    27    1
@<TRIPOS>MOLECULE
UD1
 46 48 0 0 0
SMALL
GASTEIGER

@<TRIPOS>ATOM
      1 P          20.4360   70.1416   -1.9848 P.3     1  UNL1        0.2189
      2 O          21.5654   69.4559   -2.6504 O.2     1  UNL1       -0.5170
      3 O          19.0894   69.2838   -2.1930 O.3     1  UNL1       -0.4371
      4 O          20.2435   71.6053   -2.6279 O.3     1  UNL1       -0.3112
      5 C          18.8872   71.9861   -2.3915 C.3     1  UNL1        0.1811
      6 C          19.0123   73.1098   -5.8045 C.3     1  UNL1        0.2383
      7 C          18.6151   71.6155   -5.9021 C.3     1  UNL1        0.1895
      8 O          17.7912   71.3792   -7.0443 O.3     1  UNL1       -0.3779
      9 C          17.8157   71.4047   -4.5900 C.3     1  UNL1        0.1713
     10 C          18.2844   72.5542   -3.6772 C.3     1  UNL1        0.1764
     11 O          19.2824   73.2962   -4.3988 O.3     1  UNL1       -0.3308
     12 O          16.4113   71.4962   -4.8396 O.3     1  UNL1       -0.3794
     13 H          17.5806   70.4352   -7.0473 H       1  UNL1        0.2106
     14 H          16.1916   70.7898   -5.4615 H       1  UNL1        0.2105
     15 N          20.2095   73.3822   -6.6007 N.ar    1  UNL1       -0.2551
     16 C          21.3854   72.8373   -6.2435 C.ar    1  UNL1        0.3323
     17 N          22.5019   73.0674   -6.9595 N.ar    1  UNL1       -0.2743
     18 C          22.4592   73.8611   -8.0486 C.ar    1  UNL1        0.2626
     19 C          21.2290   74.4460   -8.4325 C.ar    1  UNL1        0.0795
     20 C          20.1234   74.1942   -7.6994 C.ar    1  UNL1        0.0869
     21 O          21.4400   72.1192   -5.2637 O.2     1  UNL1       -0.2464
     22 O          23.4691   74.0737   -8.6939 O.2     1  UNL1       -0.2670
     23 H          23.3407   72.6623   -6.6901 H       1  UNL1        0.1734
     24 O          20.7456   70.2832   -0.4123 O.3     1  UNL1       -0.2703
     25 P          22.3273   70.5436   -0.2715 P.3     1  UNL1        0.2208
     26 O          22.9203   70.7162   -1.6159 O.2     1  UNL1       -0.5170
     27 O          23.0159   69.2856    0.4604 O.3     1  UNL1       -0.4371
     28 O          22.5781   71.8730    0.6004 O.3     1  UNL1       -0.2865
     29 C          21.3241   72.5515    0.6917 C.3     1  UNL1        0.2611
     30 C          21.4662   73.9569    0.1047 C.3     1  UNL1        0.1582
     31 C          22.5499   74.7161    0.8786 C.3     1  UNL1        0.1625
     32 C          22.2124   74.6645    2.3725 C.3     1  UNL1        0.1686
     33 C          22.0169   73.2052    2.7891 C.3     1  UNL1        0.1760
     34 O          22.5884   76.0752    0.4397 O.3     1  UNL1       -0.3801
     35 O          23.2833   75.2384    3.1244 O.3     1  UNL1       -0.3794
     36 O          20.9301   72.6369    2.0595 O.3     1  UNL1       -0.3263
     37 H          23.2820   76.5144    0.9510 H       1  UNL1        0.2105
     38 H          23.0304   75.1848    4.0570 H       1  UNL1        0.2105
     39 C          23.1402   73.9696   -1.6651 C.2     1  UNL1        0.2231
     40 C          23.5308   73.8727   -3.1178 C.3     1  UNL1        0.0946
     41 N          21.8463   73.8623   -1.3063 N.am    1  UNL1       -0.2994
     42 O          23.9907   74.1449   -0.8189 O.2     1  UNL1       -0.2751
     43 H          21.1654   73.7222   -1.9833 H       1  UNL1        0.1496
     44 C          21.7114   73.1403    4.2870 C.3     1  UNL1        0.1693
     45 O          22.0532   71.8463    4.7877 O.3     1  UNL1       -0.3794
     46 H          21.8455   71.8478    5.7319 H       1  UNL1        0.2105
@<TRIPOS>BOND
     1    29    30    1
     2    29    28    1
     3    29    36    1
     4    30    31    1
     5    30    41    1
     6    31    32    1
     7    31    34    1
     8    32    33    1
     9    32    35    1
    10    33    44    1
    11    33    36    1
    12    44    45    1
    13    39    40    1
    14    39    41   am
    15    39    42    2
    16    41    43    1
    17    28    25    1
    18    34    37    1
    19    35    38    1
    20    45    46    1
    21    15    16   ar
    22    15    20   ar
    23    15     6    1
    24    16    17   ar
    25    16    21    2
    26    17    18   ar
    27    17    23    1
    28    18    19   ar
    29    18    22    2
    30    19    20   ar
    31     6     7    1
    32     6    11    1
    33     7     8    1
    34     7     9    1
    35     8    13    1
    36     9    10    1
    37     9    12    1
    38    10    11    1
    39    10     5    1
    40    12    14    1
    41     5     4    1
    42     4     1    1
    43     1     2    2
    44     1     3    1
    45     1    24    1
    46    24    25    1
    47    25    26    2
    48    25    27    1
@<TRIPOS>MOLECULE
UD1
 46 48 0 0 0
SMALL
GASTEIGER

@<TRIPOS>ATOM
      1 P          22.4462   70.9110   -2.2812 P.3     1  UNL1        0.2189
      2 O          23.4981   70.5958   -3.2726 O.2     1  UNL1       -0.5170
      3 O          21.4263   69.6702   -2.1680 O.3     1  UNL1       -0.4371
      4 O          21.6421   72.2242   -2.7519 O.3     1  UNL1       -0.3112
      5 C          20.4649   71.7707   -3.4219 C.3     1  UNL1        0.1811
      6 C          19.5889   72.4408   -6.8440 C.3     1  UNL1        0.2383
      7 C          20.3976   73.6853   -6.3995 C.3     1  UNL1        0.1895
      8 O          21.1062   74.2545   -7.5008 O.3     1  UNL1       -0.3779
      9 C          21.3797   73.0818   -5.3620 C.3     1  UNL1        0.1713
     10 C          20.7070   71.7639   -4.9321 C.3     1  UNL1        0.1764
     11 O          19.4520   71.6752   -5.6280 O.3     1  UNL1       -0.3308
     12 O          22.6509   72.8288   -5.9645 O.3     1  UNL1       -0.3794
     13 H          21.5863   75.0214   -7.1588 H       1  UNL1        0.2106
     14 H          22.9921   73.6817   -6.2651 H       1  UNL1        0.2105
     15 N          18.2759   72.8313   -7.3587 N.ar    1  UNL1       -0.2551
     16 C          17.5073   71.9216   -7.9825 C.ar    1  UNL1        0.3323
     17 N          16.2937   72.2518   -8.4625 N.ar    1  UNL1       -0.2743
     18 C          15.8311   73.5115   -8.3320 C.ar    1  UNL1        0.2626
     19 C          16.6324   74.4806   -7.6827 C.ar    1  UNL1        0.0795
     20 C          17.8435   74.1211   -7.2060 C.ar    1  UNL1        0.0869
     21 O          17.9107   70.7814   -8.1079 O.2     1  UNL1       -0.2464
     22 O          14.7360   73.8123   -8.7698 O.2     1  UNL1       -0.2670
     23 H          15.7507   71.5816   -8.9055 H       1  UNL1        0.1734
     24 O          23.1241   71.1823   -0.8474 O.3     1  UNL1       -0.2703
     25 P          21.9390   71.1496    0.2407 P.3     1  UNL1        0.2208
     26 O          21.7804   69.7718    0.7559 O.2     1  UNL1       -0.5170
     27 O          20.5639   71.6259   -0.4480 O.3     1  UNL1       -0.4371
     28 O          22.2989   72.1394    1.4578 O.3     1  UNL1       -0.2865
     29 C          21.6417   73.3797    1.1915 C.3     1  UNL1        0.2611
     30 C          22.6911   74.4754    0.9956 C.3     1  UNL1        0.1582
     31 C          23.5500   74.5788    2.2610 C.3     1  UNL1        0.1625
     32 C          22.6246   74.7705    3.4672 C.3     1  UNL1        0.1686
     33 C          21.5820   73.6506    3.4783 C.3     1  UNL1        0.1760
     34 O          24.4343   75.6955    2.1495 O.3     1  UNL1       -0.3801
     35 O          23.3926   74.7224    4.6711 O.3     1  UNL1       -0.3794
     36 O          20.7950   73.7127    2.2895 O.3     1  UNL1       -0.3263
     37 H          24.9543   75.7225    2.9645 H       1  UNL1        0.2105
     38 H          22.7724   74.8462    5.4037 H       1  UNL1        0.2105
     39 C          23.4828   74.8806   -1.2723 C.2     1  UNL1        0.2231
     40 C          24.3580   74.5349   -2.4499 C.3     1  UNL1        0.0946
     41 N          23.5415   74.1403   -0.1485 N.am    1  UNL1       -0.2994
     42 O          22.7251   75.8250   -1.3365 O.2     1  UNL1       -0.2751
     43 H          24.1476   73.3843   -0.0969 H       1  UNL1        0.1496
     44 C          20.6725   73.8144    4.6978 C.3     1  UNL1        0.1693
     45 O          21.2244   73.0974    5.8039 O.3     1  UNL1       -0.3794
     46 H          20.6223   73.2261    6.5493 H       1  UNL1        0.2105
@<TRIPOS>BOND
     1    29    30    1
     2    29    28    1
     3    29    36    1
     4    30    31    1
     5    30    41    1
     6    31    32    1
     7    31    34    1
     8    32    33    1
     9    32    35    1
    10    33    44    1
    11    33    36    1
    12    44    45    1
    13    39    40    1
    14    39    41   am
    15    39    42    2
    16    41    43    1
    17    28    25    1
    18    34    37    1
    19    35    38    1
    20    45    46    1
    21    15    16   ar
    22    15    20   ar
    23    15     6    1
    24    16    17   ar
    25    16    21    2
    26    17    18   ar
    27    17    23    1
    28    18    19   ar
    29    18    22    2
    30    19    20   ar
    31     6     7    1
    32     6    11    1
    33     7     8    1
    34     7     9    1
    35     8    13    1
    36     9    10    1
    37     9    12    1
    38    10    11    1
    39    10     5    1
    40    12    14    1
    41     5     4    1
    42     4     1    1
    43     1     2    2
    44     1     3    1
    45     1    24    1
    46    24    25    1
    47    25    26    2
    48    25    27    1
@<TRIPOS>MOLECULE
UD1
 46 48 0 0 0
SMALL
GASTEIGER

@<TRIPOS>ATOM
      1 P          21.4298   70.6717   -1.8957 P.3     1  UNL1        0.2189
      2 O          21.2070   69.4470   -1.0962 O.2     1  UNL1       -0.5170
      3 O          22.5621   70.3898   -3.0052 O.3     1  UNL1       -0.4371
      4 O          21.9138   71.8636   -0.9272 O.3     1  UNL1       -0.3112
      5 C          20.7345   72.4746   -0.4016 C.3     1  UNL1        0.1811
      6 C          21.6910   74.8359    2.1354 C.3     1  UNL1        0.2383
      7 C          23.0271   74.4138    1.4744 C.3     1  UNL1        0.1895
      8 O          23.9769   75.4794    1.5159 O.3     1  UNL1       -0.3779
      9 C          22.5899   74.1186    0.0160 C.3     1  UNL1        0.1713
     10 C          21.0728   73.8709    0.1228 C.3     1  UNL1        0.1764
     11 O          20.7180   73.9704    1.5126 O.3     1  UNL1       -0.3308
     12 O          22.8620   75.2418   -0.8250 O.3     1  UNL1       -0.3794
     13 H          24.7824   75.1533    1.0912 H       1  UNL1        0.2106
     14 H          23.8180   75.3820   -0.8029 H       1  UNL1        0.2105
     15 N          21.7324   74.6102    3.5806 N.ar    1  UNL1       -0.2551
     16 C          21.6654   73.3565    4.0614 C.ar    1  UNL1        0.3323
     17 N          21.7053   73.1190    5.3859 N.ar    1  UNL1       -0.2743
     18 C          21.8043   74.1432    6.2572 C.ar    1  UNL1        0.2626
     19 C          21.8696   75.4684    5.7649 C.ar    1  UNL1        0.0795
     20 C          21.8330   75.6778    4.4314 C.ar    1  UNL1        0.0869
     21 O          21.5760   72.4223    3.2882 O.2     1  UNL1       -0.2464
     22 O          21.8356   73.9299    7.4551 O.2     1  UNL1       -0.2670
     23 H          21.6607   72.2080    5.7149 H       1  UNL1        0.1734
     24 O          20.0582   71.0948   -2.6228 O.3     1  UNL1       -0.2703
     25 P          19.4132   69.7467   -3.2194 P.3     1  UNL1        0.2208
     26 O          18.3299   69.2809   -2.3259 O.2     1  UNL1       -0.5170
     27 O          20.5476   68.6090   -3.3244 O.3     1  UNL1       -0.4371
     28 O          18.8124   70.0400   -4.6834 O.3     1  UNL1       -0.2865
     29 C          19.0801   71.4130   -4.9739 C.3     1  UNL1        0.2611
     30 C          17.7858   72.2182   -4.8448 C.3     1  UNL1        0.1582
     31 C          16.7445   71.6525   -5.8170 C.3     1  UNL1        0.1625
     32 C          17.3538   71.6185   -7.2226 C.3     1  UNL1        0.1686
     33 C          18.6794   70.8558   -7.1728 C.3     1  UNL1        0.1760
     34 O          15.5843   72.4864   -5.8145 O.3     1  UNL1       -0.3801
     35 O          16.4552   70.9600   -8.1173 O.3     1  UNL1       -0.3794
     36 O          19.5889   71.5262   -6.3011 O.3     1  UNL1       -0.3263
     37 H          14.9572   72.0944   -6.4377 H       1  UNL1        0.2105
     38 H          16.8773   70.9601   -8.9881 H       1  UNL1        0.2105
     39 C          16.8019   73.2122   -2.8503 C.2     1  UNL1        0.2231
     40 C          16.2835   73.1094   -1.4386 C.3     1  UNL1        0.0946
     41 N          17.2817   72.1188   -3.4736 N.am    1  UNL1       -0.2994
     42 O          16.7877   74.2797   -3.4252 O.2     1  UNL1       -0.2751
     43 H          17.2934   71.2644   -3.0136 H       1  UNL1        0.1496
     44 C          19.2805   70.7880   -8.5783 C.3     1  UNL1        0.1693
     45 O          20.3703   69.8637   -8.5867 O.3     1  UNL1       -0.3794
     46 H          20.7197   69.8513   -9.4880 H       1  UNL1        0.2105
@<TRIPOS>BOND
     1    29    30    1
     2    29    28    1
     3    29    36    1
     4    30    31    1
     5    30    41    1
     6    31    32    1
     7    31    34    1
     8    32    33    1
     9    32    35    1
    10    33    44    1
    11    33    36    1
    12    44    45    1
    13    39    40    1
    14    39    41   am
    15    39    42    2
    16    41    43    1
    17    28    25    1
    18    34    37    1
    19    35    38    1
    20    45    46    1
    21    15    16   ar
    22    15    20   ar
    23    15     6    1
    24    16    17   ar
    25    16    21    2
    26    17    18   ar
    27    17    23    1
    28    18    19   ar
    29    18    22    2
    30    19    20   ar
    31     6     7    1
    32     6    11    1
    33     7     8    1
    34     7     9    1
    35     8    13    1
    36     9    10    1
    37     9    12    1
    38    10    11    1
    39    10     5    1
    40    12    14    1
    41     5     4    1
    42     4     1    1
    43     1     2    2
    44     1     3    1
    45     1    24    1
    46    24    25    1
    47    25    26    2
    48    25    27    1
@<TRIPOS>MOLECULE
UD1
 46 48 0 0 0
SMALL
GASTEIGER

@<TRIPOS>ATOM
      1 P          22.9949   72.7224   -3.2963 P.3     1  UNL1        0.2189
      2 O          23.3503   71.2904   -3.1877 O.2     1  UNL1       -0.5170
      3 O          23.7327   73.3629   -4.5761 O.3     1  UNL1       -0.4371
      4 O          23.4666   73.4942   -1.9642 O.3     1  UNL1       -0.3112
      5 C          23.4143   74.8917   -2.2551 C.3     1  UNL1        0.1811
      6 C          26.8601   75.8785   -1.9731 C.3     1  UNL1        0.2383
      7 C          26.1829   77.0463   -2.7333 C.3     1  UNL1        0.1895
      8 O          26.8283   78.2869   -2.4443 O.3     1  UNL1       -0.3779
      9 C          24.7449   77.0222   -2.1530 C.3     1  UNL1        0.1713
     10 C          24.5942   75.5976   -1.5852 C.3     1  UNL1        0.1764
     11 O          25.8130   74.8903   -1.8704 O.3     1  UNL1       -0.3308
     12 O          24.6069   77.9976   -1.1175 O.3     1  UNL1       -0.3794
     13 H          26.3615   78.9692   -2.9463 H       1  UNL1        0.2106
     14 H          24.7708   78.8598   -1.5223 H       1  UNL1        0.2105
     15 N          27.9941   75.3519   -2.7335 N.ar    1  UNL1       -0.2551
     16 C          27.8050   74.9027   -3.9865 C.ar    1  UNL1        0.3323
     17 N          28.8305   74.4166   -4.7106 N.ar    1  UNL1       -0.2743
     18 C          30.0702   74.3641   -4.1830 C.ar    1  UNL1        0.2626
     19 C          30.2821   74.8281   -2.8630 C.ar    1  UNL1        0.0795
     20 C          29.2368   75.3156   -2.1608 C.ar    1  UNL1        0.0869
     21 O          26.6928   74.9436   -4.4762 O.2     1  UNL1       -0.2464
     22 O          30.9971   73.9204   -4.8352 O.2     1  UNL1       -0.2670
     23 H          28.6769   74.1013   -5.6146 H       1  UNL1        0.1734
     24 O          21.4015   72.8686   -3.4653 O.3     1  UNL1       -0.2703
     25 P          21.1147   73.0394   -5.0394 P.3     1  UNL1        0.2208
     26 O          22.1519   72.3195   -5.8106 O.2     1  UNL1       -0.5170
     27 O          21.1480   74.6021   -5.4253 O.3     1  UNL1       -0.4371
     28 O          19.6663   72.4320   -5.3912 O.3     1  UNL1       -0.2865
     29 C          19.8611   71.0525   -5.7077 C.3     1  UNL1        0.2611
     30 C          18.7094   70.5695   -6.5910 C.3     1  UNL1        0.1582
     31 C          17.3861   70.7718   -5.8443 C.3     1  UNL1        0.1625
     32 C          17.4871   70.0916   -4.4749 C.3     1  UNL1        0.1686
     33 C          18.7295   70.6131   -3.7499 C.3     1  UNL1        0.1760
     34 O          16.3189   70.1890   -6.5946 O.3     1  UNL1       -0.3801
     35 O          16.3214   70.3919   -3.7050 O.3     1  UNL1       -0.3794
     36 O          19.8980   70.2906   -4.5029 O.3     1  UNL1       -0.3263
     37 H          15.5078   70.3393   -6.0898 H       1  UNL1        0.2105
     38 H          16.4266   69.9459   -2.8527 H       1  UNL1        0.2105
     39 C          19.5097   70.9973   -8.8517 C.2     1  UNL1        0.2231
     40 C          19.4918   71.7894  -10.1341 C.3     1  UNL1        0.0946
     41 N          18.6920   71.3383   -7.8372 N.am    1  UNL1       -0.2994
     42 O          20.2609   70.0530   -8.7328 O.2     1  UNL1       -0.2751
     43 H          18.0909   72.0941   -7.9320 H       1  UNL1        0.1496
     44 C          18.8218   69.9639   -2.3674 C.3     1  UNL1        0.1693
     45 O          18.2340   68.6621   -2.4118 O.3     1  UNL1       -0.3794
     46 H          18.3125   68.2892   -1.5233 H       1  UNL1        0.2105
@<TRIPOS>BOND
     1    29    30    1
     2    29    28    1
     3    29    36    1
     4    30    31    1
     5    30    41    1
     6    31    32    1
     7    31    34    1
     8    32    33    1
     9    32    35    1
    10    33    44    1
    11    33    36    1
    12    44    45    1
    13    39    40    1
    14    39    41   am
    15    39    42    2
    16    41    43    1
    17    28    25    1
    18    34    37    1
    19    35    38    1
    20    45    46    1
    21    15    16   ar
    22    15    20   ar
    23    15     6    1
    24    16    17   ar
    25    16    21    2
    26    17    18   ar
    27    17    23    1
    28    18    19   ar
    29    18    22    2
    30    19    20   ar
    31     6     7    1
    32     6    11    1
    33     7     8    1
    34     7     9    1
    35     8    13    1
    36     9    10    1
    37     9    12    1
    38    10    11    1
    39    10     5    1
    40    12    14    1
    41     5     4    1
    42     4     1    1
    43     1     2    2
    44     1     3    1
    45     1    24    1
    46    24    25    1
    47    25    26    2
    48    25    27    1
@<TRIPOS>MOLECULE
UD1
 46 48 0 0 0
SMALL
GASTEIGER

@<TRIPOS>ATOM
      1 P          23.6535   75.5912   -4.4958 P.3     1  UNL1        0.2189
      2 O          24.3715   76.2540   -5.6066 O.2     1  UNL1       -0.5170
      3 O          23.1315   74.1471   -4.9801 O.3     1  UNL1       -0.4371
      4 O          22.3959   76.4953   -4.0553 O.3     1  UNL1       -0.3112
      5 C          22.1950   77.4579   -5.0913 C.3     1  UNL1        0.1811
      6 C          19.2931   76.0250   -6.6575 C.3     1  UNL1        0.2383
      7 C          19.1908   75.5860   -5.1753 C.3     1  UNL1        0.1895
      8 O          17.8267   75.4487   -4.7759 O.3     1  UNL1       -0.3779
      9 C          19.8669   76.7708   -4.4374 C.3     1  UNL1        0.1713
     10 C          20.7277   77.4456   -5.5228 C.3     1  UNL1        0.1764
     11 O          20.5791   76.6767   -6.7286 O.3     1  UNL1       -0.3308
     12 O          18.8811   77.6765   -3.9368 O.3     1  UNL1       -0.3794
     13 H          17.8326   75.1745   -3.8484 H       1  UNL1        0.2106
     14 H          18.3389   77.1802   -3.3092 H       1  UNL1        0.2105
     15 N          19.2532   74.8637   -7.5471 N.ar    1  UNL1       -0.2551
     16 C          18.3737   74.8329   -8.5634 C.ar    1  UNL1        0.3323
     17 N          18.3174   73.7794   -9.3996 N.ar    1  UNL1       -0.2743
     18 C          19.1421   72.7274   -9.2237 C.ar    1  UNL1        0.2626
     19 C          20.0687   72.7441   -8.1541 C.ar    1  UNL1        0.0795
     20 C          20.1076   73.8158   -7.3335 C.ar    1  UNL1        0.0869
     21 O          17.6233   75.7742   -8.7352 O.2     1  UNL1       -0.2464
     22 O          19.0888   71.7723   -9.9762 O.2     1  UNL1       -0.2670
     23 H          17.6800   73.7761  -10.1304 H       1  UNL1        0.1734
     24 O          24.6492   75.4113   -3.2448 O.3     1  UNL1       -0.2703
     25 P          23.7422   74.9824   -1.9867 P.3     1  UNL1        0.2208
     26 O          22.8331   76.0945   -1.6322 O.2     1  UNL1       -0.5170
     27 O          24.6909   74.6446   -0.7306 O.3     1  UNL1       -0.4371
     28 O          22.8749   73.6811   -2.3676 O.3     1  UNL1       -0.2865
     29 C          21.5376   73.9323   -1.9320 C.3     1  UNL1        0.2611
     30 C          21.3118   73.2558   -0.5787 C.3     1  UNL1        0.1582
     31 C          21.5600   71.7501   -0.7234 C.3     1  UNL1        0.1625
     32 C          20.6942   71.2187   -1.8706 C.3     1  UNL1        0.1686
     33 C          20.9690   72.0471   -3.1274 C.3     1  UNL1        0.1760
     34 O          21.2084   71.0878    0.4928 O.3     1  UNL1       -0.3801
     35 O          21.0179   69.8493   -2.1189 O.3     1  UNL1       -0.3794
     36 O          20.6209   73.4108   -2.8917 O.3     1  UNL1       -0.3263
     37 H          21.3801   70.1457    0.3576 H       1  UNL1        0.2105
     38 H          20.4519   69.5556   -2.8469 H       1  UNL1        0.2105
     39 C          21.7685   74.3216    1.5636 C.2     1  UNL1        0.2231
     40 C          22.7231   74.8957    2.5792 C.3     1  UNL1        0.0946
     41 N          22.2387   73.8131    0.4084 N.am    1  UNL1       -0.2994
     42 O          20.5766   74.3180    1.7861 O.2     1  UNL1       -0.2751
     43 H          23.1925   73.8161    0.2300 H       1  UNL1        0.1496
     44 C          20.1329   71.5035   -4.2879 C.3     1  UNL1        0.1693
     45 O          19.2720   70.4675   -3.8110 O.3     1  UNL1       -0.3794
     46 H          18.7645   70.1531   -4.5715 H       1  UNL1        0.2105
@<TRIPOS>BOND
     1    29    30    1
     2    29    28    1
     3    29    36    1
     4    30    31    1
     5    30    41    1
     6    31    32    1
     7    31    34    1
     8    32    33    1
     9    32    35    1
    10    33    44    1
    11    33    36    1
    12    44    45    1
    13    39    40    1
    14    39    41   am
    15    39    42    2
    16    41    43    1
    17    28    25    1
    18    34    37    1
    19    35    38    1
    20    45    46    1
    21    15    16   ar
    22    15    20   ar
    23    15     6    1
    24    16    17   ar
    25    16    21    2
    26    17    18   ar
    27    17    23    1
    28    18    19   ar
    29    18    22    2
    30    19    20   ar
    31     6     7    1
    32     6    11    1
    33     7     8    1
    34     7     9    1
    35     8    13    1
    36     9    10    1
    37     9    12    1
    38    10    11    1
    39    10     5    1
    40    12    14    1
    41     5     4    1
    42     4     1    1
    43     1     2    2
    44     1     3    1
    45     1    24    1
    46    24    25    1
    47    25    26    2
    48    25    27    1
@<TRIPOS>MOLECULE
UD1
 46 48 0 0 0
SMALL
GASTEIGER

@<TRIPOS>ATOM
      1 P          22.4960   73.1124   -4.5830 P.3     1  UNL1        0.2189
      2 O          23.6496   72.3021   -4.1344 O.2     1  UNL1       -0.5170
      3 O          22.8883   74.6735   -4.5420 O.3     1  UNL1       -0.4371
      4 O          21.2435   72.8491   -3.6058 O.3     1  UNL1       -0.3112
      5 C          21.4658   73.6277   -2.4291 C.3     1  UNL1        0.1811
      6 C          22.1935   72.3400    0.8481 C.3     1  UNL1        0.2383
      7 C          21.3086   71.2513    0.1909 C.3     1  UNL1        0.1895
      8 O          21.6443   69.9537    0.6836 O.3     1  UNL1       -0.3779
      9 C          21.6832   71.3881   -1.3078 C.3     1  UNL1        0.1713
     10 C          22.2704   72.8085   -1.4187 C.3     1  UNL1        0.1764
     11 O          22.1813   73.4131   -0.1173 O.3     1  UNL1       -0.3308
     12 O          22.6569   70.4073   -1.6717 O.3     1  UNL1       -0.3794
     13 H          21.0601   69.3249    0.2377 H       1  UNL1        0.2106
     14 H          22.2511   69.5427   -1.5242 H       1  UNL1        0.2105
     15 N          21.6162   72.7818    2.1181 N.ar    1  UNL1       -0.2551
     16 C          22.0118   72.2050    3.2663 C.ar    1  UNL1        0.3323
     17 N          21.5007   72.5939    4.4494 N.ar    1  UNL1       -0.2743
     18 C          20.5706   73.5687    4.5003 C.ar    1  UNL1        0.2626
     19 C          20.1408   74.1804    3.2986 C.ar    1  UNL1        0.0795
     20 C          20.6739   73.7746    2.1262 C.ar    1  UNL1        0.0869
     21 O          22.8499   71.3244    3.2367 O.2     1  UNL1       -0.2464
     22 O          20.1044   73.9178    5.5690 O.2     1  UNL1       -0.2670
     23 H          21.8011   72.1701    5.2682 H       1  UNL1        0.1734
     24 O          22.1002   72.6968   -6.0861 O.3     1  UNL1       -0.2703
     25 P          20.6656   73.3596   -6.3893 P.3     1  UNL1        0.2208
     26 O          20.5196   73.5747   -7.8457 O.2     1  UNL1       -0.5170
     27 O          20.5540   74.7723   -5.6251 O.3     1  UNL1       -0.4371
     28 O          19.4995   72.3779   -5.8724 O.3     1  UNL1       -0.2865
     29 C          19.6497   71.1467   -6.5814 C.3     1  UNL1        0.2611
     30 C          18.3254   70.7891   -7.2586 C.3     1  UNL1        0.1582
     31 C          17.2328   70.6686   -6.1903 C.3     1  UNL1        0.1625
     32 C          17.7035   69.6817   -5.1168 C.3     1  UNL1        0.1686
     33 C          19.0736   70.1246   -4.5990 C.3     1  UNL1        0.1760
     34 O          16.0275   70.1899   -6.7901 O.3     1  UNL1       -0.3801
     35 O          16.7661   69.6652   -4.0387 O.3     1  UNL1       -0.3794
     36 O          20.0189   70.1158   -5.6680 O.3     1  UNL1       -0.3263
     37 H          15.3690   70.1297   -6.0843 H       1  UNL1        0.2105
     38 H          17.1007   69.0332   -3.3866 H       1  UNL1        0.2105
     39 C          17.1196   72.8222   -7.8475 C.2     1  UNL1        0.2231
     40 C          16.7478   73.9024   -8.8310 C.3     1  UNL1        0.0946
     41 N          17.9643   71.8389   -8.2135 N.am    1  UNL1       -0.2994
     42 O          16.6578   72.8378   -6.7265 O.2     1  UNL1       -0.2751
     43 H          18.3339   71.8261   -9.1106 H       1  UNL1        0.1496
     44 C          19.5383   69.1635   -3.5030 C.3     1  UNL1        0.1693
     45 O          18.9210   69.5188   -2.2641 O.3     1  UNL1       -0.3794
     46 H          19.2400   68.8905   -1.6022 H       1  UNL1        0.2105
@<TRIPOS>BOND
     1    29    30    1
     2    29    28    1
     3    29    36    1
     4    30    31    1
     5    30    41    1
     6    31    32    1
     7    31    34    1
     8    32    33    1
     9    32    35    1
    10    33    44    1
    11    33    36    1
    12    44    45    1
    13    39    40    1
    14    39    41   am
    15    39    42    2
    16    41    43    1
    17    28    25    1
    18    34    37    1
    19    35    38    1
    20    45    46    1
    21    15    16   ar
    22    15    20   ar
    23    15     6    1
    24    16    17   ar
    25    16    21    2
    26    17    18   ar
    27    17    23    1
    28    18    19   ar
    29    18    22    2
    30    19    20   ar
    31     6     7    1
    32     6    11    1
    33     7     8    1
    34     7     9    1
    35     8    13    1
    36     9    10    1
    37     9    12    1
    38    10    11    1
    39    10     5    1
    40    12    14    1
    41     5     4    1
    42     4     1    1
    43     1     2    2
    44     1     3    1
    45     1    24    1
    46    24    25    1
    47    25    26    2
    48    25    27    1
@<TRIPOS>MOLECULE
UD1
 46 48 0 0 0
SMALL
GASTEIGER

@<TRIPOS>ATOM
      1 P          20.3261   70.0756   -2.1698 P.3     1  UNL1        0.2189
      2 O          21.5415   69.5841   -2.8555 O.2     1  UNL1       -0.5170
      3 O          19.1242   69.0272   -2.3905 O.3     1  UNL1       -0.4371
      4 O          19.9080   71.5060   -2.7797 O.3     1  UNL1       -0.3112
      5 C          19.6903   71.3121   -4.1780 C.3     1  UNL1        0.1811
      6 C          16.7883   71.9399   -6.2056 C.3     1  UNL1        0.2383
      7 C          17.1587   70.4655   -6.5040 C.3     1  UNL1        0.1895
      8 O          15.9948   69.6992   -6.8164 O.3     1  UNL1       -0.3779
      9 C          17.7786   70.0068   -5.1585 C.3     1  UNL1        0.1713
     10 C          18.1885   71.3217   -4.4676 C.3     1  UNL1        0.1764
     11 O          17.8710   72.3970   -5.3676 O.3     1  UNL1       -0.3308
     12 O          16.8113   69.3034   -4.3759 O.3     1  UNL1       -0.3794
     13 H          16.2928   68.7959   -6.9914 H       1  UNL1        0.2106
     14 H          16.5513   68.5252   -4.8867 H       1  UNL1        0.2105
     15 N          16.7274   72.7206   -7.4419 N.ar    1  UNL1       -0.2551
     16 C          17.7962   72.7631   -8.2563 C.ar    1  UNL1        0.3323
     17 N          17.7671   73.4698   -9.4017 N.ar    1  UNL1       -0.2743
     18 C          16.6606   74.1583   -9.7475 C.ar    1  UNL1        0.2626
     19 C          15.5304   74.1271   -8.8963 C.ar    1  UNL1        0.0795
     20 C          15.5849   73.4059   -7.7560 C.ar    1  UNL1        0.0869
     21 O          18.8015   72.1473   -7.9583 O.2     1  UNL1       -0.2464
     22 O          16.6349   74.8015  -10.7804 O.2     1  UNL1       -0.2670
     23 H          18.5456   73.4854   -9.9797 H       1  UNL1        0.1734
     24 O          20.6231   70.2296   -0.5960 O.3     1  UNL1       -0.2703
     25 P          22.2070   70.4685   -0.4429 P.3     1  UNL1        0.2208
     26 O          22.7834   70.8132   -1.7611 O.2     1  UNL1       -0.5170
     27 O          22.9018   69.1261    0.1113 O.3     1  UNL1       -0.4371
     28 O          22.4718   71.6740    0.5902 O.3     1  UNL1       -0.2865
     29 C          21.1918   72.1789    0.9748 C.3     1  UNL1        0.2611
     30 C          21.0804   73.6455    0.5544 C.3     1  UNL1        0.1582
     31 C          22.2020   74.4460    1.2259 C.3     1  UNL1        0.1625
     32 C          22.1468   74.1948    2.7365 C.3     1  UNL1        0.1686
     33 C          22.1809   72.6866    2.9924 C.3     1  UNL1        0.1760
     34 O          22.0207   75.8384    0.9618 O.3     1  UNL1       -0.3801
     35 O          23.2711   74.8131    3.3652 O.3     1  UNL1       -0.3794
     36 O          21.0445   72.0693    2.3889 O.3     1  UNL1       -0.3263
     37 H          22.7463   76.3029    1.4012 H       1  UNL1        0.2105
     38 H          23.1975   74.6300    4.3126 H       1  UNL1        0.2105
     39 C          22.3982   74.0475   -1.4546 C.2     1  UNL1        0.2231
     40 C          22.5282   74.1545   -2.9525 C.3     1  UNL1        0.0946
     41 N          21.2073   73.7490   -0.9008 N.am    1  UNL1       -0.2994
     42 O          23.3660   74.2309   -0.7474 O.2     1  UNL1       -0.2751
     43 H          20.4326   73.6024   -1.4664 H       1  UNL1        0.1496
     44 C          22.1590   72.4257    4.4999 C.3     1  UNL1        0.1693
     45 O          21.1227   73.2030    5.1032 O.3     1  UNL1       -0.3794
     46 H          21.1435   73.0099    6.0503 H       1  UNL1        0.2105
@<TRIPOS>BOND
     1    29    30    1
     2    29    28    1
     3    29    36    1
     4    30    31    1
     5    30    41    1
     6    31    32    1
     7    31    34    1
     8    32    33    1
     9    32    35    1
    10    33    44    1
    11    33    36    1
    12    44    45    1
    13    39    40    1
    14    39    41   am
    15    39    42    2
    16    41    43    1
    17    28    25    1
    18    34    37    1
    19    35    38    1
    20    45    46    1
    21    15    16   ar
    22    15    20   ar
    23    15     6    1
    24    16    17   ar
    25    16    21    2
    26    17    18   ar
    27    17    23    1
    28    18    19   ar
    29    18    22    2
    30    19    20   ar
    31     6     7    1
    32     6    11    1
    33     7     8    1
    34     7     9    1
    35     8    13    1
    36     9    10    1
    37     9    12    1
    38    10    11    1
    39    10     5    1
    40    12    14    1
    41     5     4    1
    42     4     1    1
    43     1     2    2
    44     1     3    1
    45     1    24    1
    46    24    25    1
    47    25    26    2
    48    25    27    1
@<TRIPOS>MOLECULE
UD1
 46 48 0 0 0
SMALL
GASTEIGER

@<TRIPOS>ATOM
      1 P          23.1595   74.3259   -4.2967 P.3     1  UNL1        0.2189
      2 O          24.1175   73.2067   -4.1609 O.2     1  UNL1       -0.5170
      3 O          23.6288   75.2914   -5.4968 O.3     1  UNL1       -0.4371
      4 O          23.1149   75.1631   -2.9220 O.3     1  UNL1       -0.3112
      5 C          23.5358   74.2769   -1.8838 C.3     1  UNL1        0.1811
      6 C          21.3630   73.2215    0.7794 C.3     1  UNL1        0.2383
      7 C          20.7330   74.5396    0.2636 C.3     1  UNL1        0.1895
      8 O          19.3143   74.5259    0.4262 O.3     1  UNL1       -0.3779
      9 C          21.1181   74.5186   -1.2385 C.3     1  UNL1        0.1713
     10 C          22.3186   73.5548   -1.3038 C.3     1  UNL1        0.1764
     11 O          22.5989   73.1260    0.0397 O.3     1  UNL1       -0.3308
     12 O          20.0313   74.0285   -2.0269 O.3     1  UNL1       -0.3794
     13 H          18.9854   75.3702    0.0881 H       1  UNL1        0.2106
     14 H          19.2942   74.6401   -1.8972 H       1  UNL1        0.2105
     15 N          21.6265   73.2994    2.2167 N.ar    1  UNL1       -0.2551
     16 C          21.7355   72.1691    2.9363 C.ar    1  UNL1        0.3323
     17 N          21.9814   72.2106    4.2592 N.ar    1  UNL1       -0.2743
     18 C          22.1141   73.3955    4.8888 C.ar    1  UNL1        0.2626
     19 C          21.9958   74.5933    4.1444 C.ar    1  UNL1        0.0795
     20 C          21.7542   74.5226    2.8178 C.ar    1  UNL1        0.0869
     21 O          21.6184   71.0928    2.3828 O.2     1  UNL1       -0.2464
     22 O          22.3317   73.4343    6.0857 O.2     1  UNL1       -0.2670
     23 H          22.0617   71.3853    4.7618 H       1  UNL1        0.1734
     24 O          21.6947   73.7427   -4.6174 O.3     1  UNL1       -0.2703
     25 P          21.5959   73.5872   -6.2160 P.3     1  UNL1        0.2208
     26 O          22.7693   72.8345   -6.7116 O.2     1  UNL1       -0.5170
     27 O          21.5681   75.0457   -6.8971 O.3     1  UNL1       -0.4371
     28 O          20.2490   72.7928   -6.5970 O.3     1  UNL1       -0.2865
     29 C          19.1588   73.5440   -6.0599 C.3     1  UNL1        0.2611
     30 C          18.2491   72.6112   -5.2585 C.3     1  UNL1        0.1582
     31 C          17.7373   71.4975   -6.1789 C.3     1  UNL1        0.1625
     32 C          17.0906   72.1386   -7.4113 C.3     1  UNL1        0.1686
     33 C          18.0890   73.1049   -8.0522 C.3     1  UNL1        0.1760
     34 O          16.7710   70.7076   -5.4833 O.3     1  UNL1       -0.3801
     35 O          16.7384   71.1208   -8.3503 O.3     1  UNL1       -0.3794
     36 O          18.4220   74.1385   -7.1262 O.3     1  UNL1       -0.3263
     37 H          16.4769   70.0210   -6.0977 H       1  UNL1        0.2105
     38 H          16.3363   71.5672   -9.1090 H       1  UNL1        0.2105
     39 C          19.6196   70.8356   -4.3082 C.2     1  UNL1        0.2231
     40 C          20.3966   70.2307   -3.1668 C.3     1  UNL1        0.0946
     41 N          19.0044   72.0234   -4.1502 N.am    1  UNL1       -0.2994
     42 O          19.5477   70.2527   -5.3689 O.2     1  UNL1       -0.2751
     43 H          19.0616   72.4900   -3.3013 H       1  UNL1        0.1496
     44 C          17.4643   73.7264   -9.3031 C.3     1  UNL1        0.1693
     45 O          18.0045   73.0989  -10.4678 O.3     1  UNL1       -0.3794
     46 H          17.5859   73.5188  -11.2314 H       1  UNL1        0.2105
@<TRIPOS>BOND
     1    29    30    1
     2    29    28    1
     3    29    36    1
     4    30    31    1
     5    30    41    1
     6    31    32    1
     7    31    34    1
     8    32    33    1
     9    32    35    1
    10    33    44    1
    11    33    36    1
    12    44    45    1
    13    39    40    1
    14    39    41   am
    15    39    42    2
    16    41    43    1
    17    28    25    1
    18    34    37    1
    19    35    38    1
    20    45    46    1
    21    15    16   ar
    22    15    20   ar
    23    15     6    1
    24    16    17   ar
    25    16    21    2
    26    17    18   ar
    27    17    23    1
    28    18    19   ar
    29    18    22    2
    30    19    20   ar
    31     6     7    1
    32     6    11    1
    33     7     8    1
    34     7     9    1
    35     8    13    1
    36     9    10    1
    37     9    12    1
    38    10    11    1
    39    10     5    1
    40    12    14    1
    41     5     4    1
    42     4     1    1
    43     1     2    2
    44     1     3    1
    45     1    24    1
    46    24    25    1
    47    25    26    2
    48    25    27    1
