@<TRIPOS>MOLECULE
*****
 43 45 0 0 0
SMALL
GASTEIGER

@<TRIPOS>ATOM
      1 P          22.6001   71.4428   -2.3226 P.3     1  UNL1        0.2189
      2 O          22.1269   72.7675   -3.1227 O.co2   1  UNL1       -0.4371
      3 O          23.9566   70.9247   -2.7012 O.2     1  UNL1       -0.5170
      4 O          21.3719   70.4086   -2.5229 O.3     1  UNL1       -0.3112
      5 C          20.6825   70.4091   -3.7595 C.3     1  UNL1        0.1811
      6 O          18.8343   71.5896   -4.7435 O.3     1  UNL1       -0.3308
      7 O          17.1480   70.3731   -2.5829 O.3     1  UNL1       -0.3794
      8 O          16.5840   68.7985   -4.7367 O.3     1  UNL1       -0.3779
      9 C          18.2546   69.8119   -3.2894 C.3     1  UNL1        0.1713
     10 C          17.8424   69.4385   -4.6976 C.3     1  UNL1        0.1895
     11 C          19.2658   70.9228   -3.5374 C.3     1  UNL1        0.1764
     12 C          17.8332   70.7895   -5.3922 C.3     1  UNL1        0.2383
     13 H          16.4884   69.6819   -2.4129 H       1  UNL1        0.2105
     14 H          16.6421   67.9431   -4.2819 H       1  UNL1        0.2106
     15 O          15.9315   70.3184   -7.4265 O.2     1  UNL1       -0.2464
     16 O          19.1562   70.4251  -10.7181 O.2     1  UNL1       -0.2670
     17 N          18.1484   70.6895   -6.7892 N.ar    1  UNL1       -0.2551
     18 N          17.5395   70.3709   -9.0638 N.ar    1  UNL1       -0.2743
     19 C          17.1187   70.4508   -7.7298 C.ar    1  UNL1        0.3323
     20 C          19.4637   70.8291   -7.2151 C.ar    1  UNL1        0.0869
     21 C          19.8495   70.7507   -8.4902 C.ar    1  UNL1        0.0795
     22 C          18.8355   70.5024   -9.5359 C.ar    1  UNL1        0.2626
     23 H          16.8407   70.2032   -9.7368 H       1  UNL1        0.1734
     24 O          22.4555   71.8830   -0.7740 O.3     1  UNL1       -0.2703
     25 P          21.1634   71.9450    0.1956 P.3     1  UNL1        0.2208
     26 O          21.0449   70.4292    0.7512 O.co2   1  UNL1       -0.4371
     27 O          19.9191   72.4592   -0.4686 O.2     1  UNL1       -0.5170
     28 O          21.6483   72.8086    1.4690 O.3     1  UNL1       -0.2858
     29 O          23.1068   71.3045    2.5734 O.3     1  UNL1       -0.3226
     30 O          23.7454   74.7977    4.6847 O.3     1  UNL1       -0.3794
     31 O          21.0423   74.0140    3.9013 O.3     1  UNL1       -0.3775
     32 O          25.7172   73.8763    2.7575 O.3     1  UNL1       -0.3792
     33 C          23.4408   74.0063    3.5363 C.3     1  UNL1        0.1718
     34 C          22.1870   73.1741    3.8061 C.3     1  UNL1        0.1968
     35 C          24.6371   73.0925    3.2610 C.3     1  UNL1        0.1723
     36 C          21.9612   72.1486    2.6943 C.3     1  UNL1        0.2706
     37 C          24.2929   72.0188    2.2328 C.3     1  UNL1        0.1830
     38 H          22.9992   75.3866    4.8789 H       1  UNL1        0.2105
     39 H          21.1788   74.6674    4.6047 H       1  UNL1        0.2106
     40 H          25.9460   74.5637    3.4025 H       1  UNL1        0.2106
     41 O          24.8131   69.7795    1.7676 O.co2   1  UNL1       -0.5466
     42 O          26.5004   71.0982    2.5507 O.co2   1  UNL1       -0.5466
     43 C          25.3353   70.9486    2.2141 C.2     1  UNL1        0.0799
@<TRIPOS>UNITY_ATOM_ATTR
2 1
charge -1
26 1
charge -1
41 1
charge -1
@<TRIPOS>BOND
     1     1     4    1
     2     1    24    1
     3     1     2    1
     4     1     3    2
     5    25    28    1
     6    25    24    1
     7    25    26    1
     8    25    27    2
     9     6    11    1
    10     6    12    1
    11    29    36    1
    12    29    37    1
    13     7     9    1
    14     7    13    1
    15     8    10    1
    16     8    14    1
    17     4     5    1
    18    28    36    1
    19    30    33    1
    20    30    38    1
    21    31    34    1
    22    31    39    1
    23    32    35    1
    24    32    40    1
    25    41    43   ar
    26    15    19    2
    27    42    43   ar
    28    16    22    2
    29    17    12    1
    30    17    19   ar
    31    17    20   ar
    32    18    19   ar
    33    18    22   ar
    34    18    23    1
    35     9    10    1
    36     9    11    1
    37    10    12    1
    38    11     5    1
    39    33    34    1
    40    33    35    1
    41    34    36    1
    42    35    37    1
    43    37    43    1
    44    20    21   ar
    45    21    22   ar
@<TRIPOS>MOLECULE
*****
 43 45 0 0 0
SMALL
GASTEIGER

@<TRIPOS>ATOM
      1 P          21.3566   72.9695   -4.9468 P.3     1  UNL1        0.2189
      2 O          21.6297   74.5293   -4.6134 O.co2   1  UNL1       -0.4371
      3 O          21.8429   72.5144   -6.2915 O.2     1  UNL1       -0.5170
      4 O          19.7725   72.7854   -4.6733 O.3     1  UNL1       -0.3112
      5 C          19.3548   71.7770   -3.7716 C.3     1  UNL1        0.1811
      6 O          17.4305   71.9269   -5.2043 O.3     1  UNL1       -0.3308
      7 O          15.9900   70.3136   -3.1274 O.3     1  UNL1       -0.3794
      8 O          16.5816   68.4481   -5.0264 O.3     1  UNL1       -0.3779
      9 C          17.3489   70.2269   -3.5569 C.3     1  UNL1        0.1713
     10 C          17.4269   69.5746   -4.9210 C.3     1  UNL1        0.1895
     11 C          17.8399   71.6380   -3.8499 C.3     1  UNL1        0.1764
     12 C          17.0052   70.7100   -5.8380 C.3     1  UNL1        0.2383
     13 H          15.6542   69.4238   -2.9342 H       1  UNL1        0.2105
     14 H          16.8919   67.7536   -4.4237 H       1  UNL1        0.2106
     15 O          15.5743   70.6867   -8.2729 O.2     1  UNL1       -0.2464
     16 O          19.4446   70.3674  -10.7552 O.2     1  UNL1       -0.2670
     17 N          17.6139   70.6216   -7.1352 N.ar    1  UNL1       -0.2551
     18 N          17.5032   70.5266   -9.5069 N.ar    1  UNL1       -0.2743
     19 C          16.8046   70.6173   -8.2958 C.ar    1  UNL1        0.3323
     20 C          18.9965   70.5420   -7.2485 C.ar    1  UNL1        0.0869
     21 C          19.6482   70.4562   -8.4099 C.ar    1  UNL1        0.0795
     22 C          18.8766   70.4448   -9.6701 C.ar    1  UNL1        0.2626
     23 H          16.9611   70.5198  -10.3286 H       1  UNL1        0.1734
     24 O          22.0329   72.2065   -3.6925 O.3     1  UNL1       -0.2703
     25 P          23.5669   72.1518   -3.1851 P.3     1  UNL1        0.2208
     26 O          24.3473   73.0687   -4.2670 O.co2   1  UNL1       -0.4371
     27 O          24.1182   70.7630   -3.0392 O.2     1  UNL1       -0.5170
     28 O          23.5803   73.0234   -1.8277 O.3     1  UNL1       -0.2858
     29 O          21.7386   72.6626   -0.3830 O.3     1  UNL1       -0.3226
     30 O          23.4984   75.9929    1.3140 O.3     1  UNL1       -0.3794
     31 O          23.2361   75.7729   -1.5872 O.3     1  UNL1       -0.3775
     32 O          23.8215   73.3819    2.5506 O.3     1  UNL1       -0.3792
     33 C          23.4667   74.7553    0.6031 C.3     1  UNL1        0.1718
     34 C          22.6050   74.9073   -0.6506 C.3     1  UNL1        0.1968
     35 C          22.8740   73.6922    1.5307 C.3     1  UNL1        0.1723
     36 C          22.3590   73.5511   -1.3131 C.3     1  UNL1        0.2706
     37 C          22.5399   72.4125    0.7696 C.3     1  UNL1        0.1830
     38 H          23.8714   76.6839    0.7442 H       1  UNL1        0.2105
     39 H          23.3954   76.6353   -1.1734 H       1  UNL1        0.2106
     40 H          24.0428   74.1881    3.0425 H       1  UNL1        0.2106
     41 O          21.6690   70.2581    1.0878 O.co2   1  UNL1       -0.5466
     42 O          21.0519   71.8614    2.5871 O.co2   1  UNL1       -0.5466
     43 C          21.6730   71.5166    1.5929 C.2     1  UNL1        0.0799
@<TRIPOS>UNITY_ATOM_ATTR
2 1
charge -1
26 1
charge -1
41 1
charge -1
@<TRIPOS>BOND
     1     1     4    1
     2     1    24    1
     3     1     2    1
     4     1     3    2
     5    25    28    1
     6    25    24    1
     7    25    26    1
     8    25    27    2
     9     6    11    1
    10     6    12    1
    11    29    36    1
    12    29    37    1
    13     7     9    1
    14     7    13    1
    15     8    10    1
    16     8    14    1
    17     4     5    1
    18    28    36    1
    19    30    33    1
    20    30    38    1
    21    31    34    1
    22    31    39    1
    23    32    35    1
    24    32    40    1
    25    41    43   ar
    26    15    19    2
    27    42    43   ar
    28    16    22    2
    29    17    12    1
    30    17    19   ar
    31    17    20   ar
    32    18    19   ar
    33    18    22   ar
    34    18    23    1
    35     9    10    1
    36     9    11    1
    37    10    12    1
    38    11     5    1
    39    33    34    1
    40    33    35    1
    41    34    36    1
    42    35    37    1
    43    37    43    1
    44    20    21   ar
    45    21    22   ar
@<TRIPOS>MOLECULE
*****
 43 45 0 0 0
SMALL
GASTEIGER

@<TRIPOS>ATOM
      1 P          22.8797   71.5459   -2.7747 P.3     1  UNL1        0.2189
      2 O          22.9816   73.1408   -2.5205 O.co2   1  UNL1       -0.4371
      3 O          24.1575   70.8909   -3.2106 O.2     1  UNL1       -0.5170
      4 O          21.6298   71.3935   -3.7908 O.3     1  UNL1       -0.3112
      5 C          20.7906   70.2601   -3.6652 C.3     1  UNL1        0.1811
      6 O          18.8942   71.4234   -4.5752 O.3     1  UNL1       -0.3308
      7 O          17.2791   70.0826   -2.4339 O.3     1  UNL1       -0.3794
      8 O          16.7217   68.5719   -4.6347 O.3     1  UNL1       -0.3779
      9 C          18.3884   69.5785   -3.1783 C.3     1  UNL1        0.1713
     10 C          17.9625   69.2450   -4.5924 C.3     1  UNL1        0.1895
     11 C          19.3644   70.7256   -3.4016 C.3     1  UNL1        0.1764
     12 C          17.9044   70.6196   -5.2367 C.3     1  UNL1        0.2383
     13 H          16.6417   69.3675   -2.2788 H       1  UNL1        0.2105
     14 H          16.8109   67.7025   -4.2126 H       1  UNL1        0.2106
     15 O          15.9900   70.1232   -7.2530 O.2     1  UNL1       -0.2464
     16 O          19.1450   70.4880  -10.5931 O.2     1  UNL1       -0.2670
     17 N          18.1983   70.5792   -6.6413 N.ar    1  UNL1       -0.2551
     18 N          17.5634   70.3044   -8.9146 N.ar    1  UNL1       -0.2743
     19 C          17.1639   70.3216   -7.5717 C.ar    1  UNL1        0.3323
     20 C          19.4975   70.7948   -7.0846 C.ar    1  UNL1        0.0869
     21 C          19.8630   70.7753   -8.3678 C.ar    1  UNL1        0.0795
     22 C          18.8428   70.5124   -9.4039 C.ar    1  UNL1        0.2626
     23 H          16.8610   70.1250   -9.5808 H       1  UNL1        0.1734
     24 O          22.2821   70.9933   -1.3782 O.3     1  UNL1       -0.2703
     25 P          21.4933   71.7507   -0.1874 P.3     1  UNL1        0.2208
     26 O          21.0406   70.5389    0.7856 O.co2   1  UNL1       -0.4371
     27 O          20.3646   72.6236   -0.6543 O.2     1  UNL1       -0.5170
     28 O          22.6430   72.5265    0.6364 O.3     1  UNL1       -0.2858
     29 O          22.2087   73.7054    2.6441 O.3     1  UNL1       -0.3226
     30 O          25.7273   75.4639    1.3810 O.3     1  UNL1       -0.3794
     31 O          23.6032   74.8609   -0.5319 O.3     1  UNL1       -0.3775
     32 O          25.7553   73.5531    3.5716 O.3     1  UNL1       -0.3792
     33 C          24.7830   74.4049    1.5385 C.3     1  UNL1        0.1718
     34 C          23.4592   74.7980    0.8823 C.3     1  UNL1        0.1968
     35 C          24.5843   74.1674    3.0371 C.3     1  UNL1        0.1723
     36 C          22.3585   73.7936    1.2266 C.3     1  UNL1        0.2706
     37 C          23.3903   73.2553    3.3032 C.3     1  UNL1        0.1830
     38 H          25.8695   75.6327    0.4362 H       1  UNL1        0.2105
     39 H          24.3003   75.4962   -0.7575 H       1  UNL1        0.2106
     40 H          26.5228   74.1236    3.4088 H       1  UNL1        0.2106
     41 O          23.2136   74.5288    5.2649 O.co2   1  UNL1       -0.5466
     42 O          22.5595   72.3474    5.3785 O.co2   1  UNL1       -0.5466
     43 C          23.0047   73.2934    4.7461 C.2     1  UNL1        0.0799
@<TRIPOS>UNITY_ATOM_ATTR
2 1
charge -1
26 1
charge -1
41 1
charge -1
@<TRIPOS>BOND
     1     1     4    1
     2     1    24    1
     3     1     2    1
     4     1     3    2
     5    25    28    1
     6    25    24    1
     7    25    26    1
     8    25    27    2
     9     6    11    1
    10     6    12    1
    11    29    36    1
    12    29    37    1
    13     7     9    1
    14     7    13    1
    15     8    10    1
    16     8    14    1
    17     4     5    1
    18    28    36    1
    19    30    33    1
    20    30    38    1
    21    31    34    1
    22    31    39    1
    23    32    35    1
    24    32    40    1
    25    41    43   ar
    26    15    19    2
    27    42    43   ar
    28    16    22    2
    29    17    12    1
    30    17    19   ar
    31    17    20   ar
    32    18    19   ar
    33    18    22   ar
    34    18    23    1
    35     9    10    1
    36     9    11    1
    37    10    12    1
    38    11     5    1
    39    33    34    1
    40    33    35    1
    41    34    36    1
    42    35    37    1
    43    37    43    1
    44    20    21   ar
    45    21    22   ar
@<TRIPOS>MOLECULE
*****
 43 45 0 0 0
SMALL
GASTEIGER

@<TRIPOS>ATOM
      1 P          21.4714   72.6771   -4.7379 P.3     1  UNL1        0.2189
      2 O          21.4608   74.2791   -4.5088 O.co2   1  UNL1       -0.4371
      3 O          22.2970   72.2088   -5.9002 O.2     1  UNL1       -0.5170
      4 O          19.9033   72.2810   -4.7850 O.3     1  UNL1       -0.3112
      5 C          19.3830   71.4570   -3.7579 C.3     1  UNL1        0.1811
      6 O          17.5042   71.7850   -5.2208 O.3     1  UNL1       -0.3308
      7 O          15.9142   70.2062   -3.2282 O.3     1  UNL1       -0.3794
      8 O          16.4186   68.3683   -5.1785 O.3     1  UNL1       -0.3779
      9 C          17.2729   70.0412   -3.6345 C.3     1  UNL1        0.1713
     10 C          17.3356   69.4304   -5.0185 C.3     1  UNL1        0.1895
     11 C          17.8642   71.4244   -3.8697 C.3     1  UNL1        0.1764
     12 C          17.0112   70.6215   -5.9039 C.3     1  UNL1        0.2383
     13 H          15.5150   69.3356   -3.0720 H       1  UNL1        0.2105
     14 H          16.6684   67.6347   -4.5942 H       1  UNL1        0.2106
     15 O          15.6265   70.7084   -8.3639 O.2     1  UNL1       -0.2464
     16 O          19.5262   70.2788  -10.7829 O.2     1  UNL1       -0.2670
     17 N          17.6399   70.5345   -7.1915 N.ar    1  UNL1       -0.2551
     18 N          17.5700   70.4934   -9.5663 N.ar    1  UNL1       -0.2743
     19 C          16.8531   70.5881   -8.3663 C.ar    1  UNL1        0.3323
     20 C          19.0200   70.3996   -7.2818 C.ar    1  UNL1        0.0869
     21 C          19.6892   70.3106   -8.4329 C.ar    1  UNL1        0.0795
     22 C          18.9417   70.3575   -9.7066 C.ar    1  UNL1        0.2626
     23 H          17.0435   70.5262  -10.3976 H       1  UNL1        0.1734
     24 O          21.9469   72.1083   -3.3015 O.3     1  UNL1       -0.2703
     25 P          23.4152   72.0103   -2.6320 P.3     1  UNL1        0.2208
     26 O          24.1157   73.4019   -3.0713 O.co2   1  UNL1       -0.4371
     27 O          24.1867   70.7812   -3.0168 O.2     1  UNL1       -0.5170
     28 O          23.1540   72.1682   -1.0479 O.3     1  UNL1       -0.2858
     29 O          24.3784   71.0627    0.6515 O.3     1  UNL1       -0.3226
     30 O          20.7848   71.8027    2.5505 O.3     1  UNL1       -0.3794
     31 O          20.8326   70.8787   -0.2205 O.3     1  UNL1       -0.3775
     32 O          23.1223   73.4157    3.1710 O.3     1  UNL1       -0.3792
     33 C          21.8534   72.0568    1.6386 C.3     1  UNL1        0.1718
     34 C          21.9628   70.9011    0.6437 C.3     1  UNL1        0.1968
     35 C          23.1454   72.1861    2.4484 C.3     1  UNL1        0.1723
     36 C          23.2325   71.0238   -0.1999 C.3     1  UNL1        0.2706
     37 C          24.3737   72.1754    1.5431 C.3     1  UNL1        0.1830
     38 H          19.9531   71.7166    2.0583 H       1  UNL1        0.2105
     39 H          20.0234   70.8012    0.3081 H       1  UNL1        0.2106
     40 H          22.3451   73.4353    3.7510 H       1  UNL1        0.2106
     41 O          26.0750   70.7009    2.2011 O.co2   1  UNL1       -0.5466
     42 O          26.1615   72.8241    3.0279 O.co2   1  UNL1       -0.5466
     43 C          25.6196   71.9704    2.3418 C.2     1  UNL1        0.0799
@<TRIPOS>UNITY_ATOM_ATTR
2 1
charge -1
26 1
charge -1
41 1
charge -1
@<TRIPOS>BOND
     1     1     4    1
     2     1    24    1
     3     1     2    1
     4     1     3    2
     5    25    28    1
     6    25    24    1
     7    25    26    1
     8    25    27    2
     9     6    11    1
    10     6    12    1
    11    29    36    1
    12    29    37    1
    13     7     9    1
    14     7    13    1
    15     8    10    1
    16     8    14    1
    17     4     5    1
    18    28    36    1
    19    30    33    1
    20    30    38    1
    21    31    34    1
    22    31    39    1
    23    32    35    1
    24    32    40    1
    25    41    43   ar
    26    15    19    2
    27    42    43   ar
    28    16    22    2
    29    17    12    1
    30    17    19   ar
    31    17    20   ar
    32    18    19   ar
    33    18    22   ar
    34    18    23    1
    35     9    10    1
    36     9    11    1
    37    10    12    1
    38    11     5    1
    39    33    34    1
    40    33    35    1
    41    34    36    1
    42    35    37    1
    43    37    43    1
    44    20    21   ar
    45    21    22   ar
@<TRIPOS>MOLECULE
*****
 43 45 0 0 0
SMALL
GASTEIGER

@<TRIPOS>ATOM
      1 P          22.6711   71.2178   -2.7753 P.3     1  UNL1        0.2189
      2 O          24.2233   70.7863   -2.9284 O.co2   1  UNL1       -0.4371
      3 O          21.6787   70.1482   -3.1260 O.2     1  UNL1       -0.5170
      4 O          22.5618   72.5860   -3.6320 O.3     1  UNL1       -0.3112
      5 C          21.3051   72.9437   -4.1773 C.3     1  UNL1        0.1811
      6 O          20.4677   71.1452   -5.5344 O.3     1  UNL1       -0.3308
      7 O          20.8305   72.9879   -7.8720 O.3     1  UNL1       -0.3794
      8 O          18.1506   73.1513   -7.3947 O.3     1  UNL1       -0.3779
      9 C          20.4219   73.2904   -6.5378 C.3     1  UNL1        0.1713
     10 C          18.9967   72.8330   -6.3096 C.3     1  UNL1        0.1895
     11 C          21.2015   72.3876   -5.5916 C.3     1  UNL1        0.1764
     12 C          19.1720   71.3354   -6.1245 C.3     1  UNL1        0.2383
     13 H          20.3457   73.5524   -8.4948 H       1  UNL1        0.2105
     14 H          18.0710   74.1156   -7.4706 H       1  UNL1        0.2106
     15 O          16.9532   69.8303   -7.0124 O.2     1  UNL1       -0.2464
     16 O          15.4172   69.2157   -2.7104 O.2     1  UNL1       -0.2670
     17 N          18.1768   70.7702   -5.2579 N.ar    1  UNL1       -0.2551
     18 N          16.1897   69.5265   -4.8690 N.ar    1  UNL1       -0.2743
     19 C          17.1016   70.0310   -5.8055 C.ar    1  UNL1        0.3323
     20 C          18.2720   70.9486   -3.8831 C.ar    1  UNL1        0.0869
     21 C          17.3950   70.4616   -3.0031 C.ar    1  UNL1        0.0795
     22 C          16.2419   69.6782   -3.4928 C.ar    1  UNL1        0.2626
     23 H          15.4315   69.0102   -5.2265 H       1  UNL1        0.1734
     24 O          22.5882   71.7383   -1.2472 O.3     1  UNL1       -0.2703
     25 P          21.3260   71.9125   -0.2522 P.3     1  UNL1        0.2208
     26 O          21.0710   70.4082    0.2886 O.co2   1  UNL1       -0.4371
     27 O          20.1256   72.5533   -0.8866 O.2     1  UNL1       -0.5170
     28 O          21.9153   72.7085    1.0211 O.3     1  UNL1       -0.2858
     29 O          23.2019   71.2407    2.3625 O.3     1  UNL1       -0.3226
     30 O          23.3395   74.7322    4.5668 O.3     1  UNL1       -0.3794
     31 O          20.8465   73.8712    3.3106 O.3     1  UNL1       -0.3775
     32 O          25.6523   73.8916    3.0190 O.3     1  UNL1       -0.3792
     33 C          23.2706   73.9424    3.3795 C.3     1  UNL1        0.1718
     34 C          22.0166   73.0687    3.4182 C.3     1  UNL1        0.1968
     35 C          24.5260   73.0694    3.3187 C.3     1  UNL1        0.1723
     36 C          22.0262   72.0472    2.2801 C.3     1  UNL1        0.2706
     37 C          24.4058   71.9951    2.2416 C.3     1  UNL1        0.1830
     38 H          22.5519   75.2954    4.6269 H       1  UNL1        0.2105
     39 H          20.8340   74.5219    4.0296 H       1  UNL1        0.2106
     40 H          25.7399   74.5796    3.6970 H       1  UNL1        0.2106
     41 O          24.9189   69.7302    2.5706 O.co2   1  UNL1       -0.5466
     42 O          26.6711   71.1781    2.3910 O.co2   1  UNL1       -0.5466
     43 C          25.4692   70.9585    2.4053 C.2     1  UNL1        0.0799
@<TRIPOS>UNITY_ATOM_ATTR
2 1
charge -1
26 1
charge -1
41 1
charge -1
@<TRIPOS>BOND
     1     1     4    1
     2     1    24    1
     3     1     2    1
     4     1     3    2
     5    25    28    1
     6    25    24    1
     7    25    26    1
     8    25    27    2
     9     6    11    1
    10     6    12    1
    11    29    36    1
    12    29    37    1
    13     7     9    1
    14     7    13    1
    15     8    10    1
    16     8    14    1
    17     4     5    1
    18    28    36    1
    19    30    33    1
    20    30    38    1
    21    31    34    1
    22    31    39    1
    23    32    35    1
    24    32    40    1
    25    41    43   ar
    26    15    19    2
    27    42    43   ar
    28    16    22    2
    29    17    12    1
    30    17    19   ar
    31    17    20   ar
    32    18    19   ar
    33    18    22   ar
    34    18    23    1
    35     9    10    1
    36     9    11    1
    37    10    12    1
    38    11     5    1
    39    33    34    1
    40    33    35    1
    41    34    36    1
    42    35    37    1
    43    37    43    1
    44    20    21   ar
    45    21    22   ar
@<TRIPOS>MOLECULE
*****
 43 45 0 0 0
SMALL
GASTEIGER

@<TRIPOS>ATOM
      1 P          22.4478   72.0173   -2.5925 P.3     1  UNL1        0.2189
      2 O          22.8191   73.5044   -2.0734 O.co2   1  UNL1       -0.4371
      3 O          23.5852   71.2605   -3.2132 O.2     1  UNL1       -0.5170
      4 O          21.1569   72.2478   -3.5404 O.3     1  UNL1       -0.3112
      5 C          21.3034   73.0474   -4.6995 C.3     1  UNL1        0.1811
      6 O          20.7196   70.8978   -5.6029 O.3     1  UNL1       -0.3308
      7 O          21.2213   72.1032   -8.3023 O.3     1  UNL1       -0.3794
      8 O          18.5010   72.1597   -8.1208 O.3     1  UNL1       -0.3779
      9 C          20.6568   72.7025   -7.1358 C.3     1  UNL1        0.1713
     10 C          19.2442   72.2018   -6.9206 C.3     1  UNL1        0.1895
     11 C          21.3825   72.1406   -5.9210 C.3     1  UNL1        0.1764
     12 C          19.4849   70.8217   -6.3331 C.3     1  UNL1        0.2383
     13 H          20.7735   72.4468   -9.0917 H       1  UNL1        0.2105
     14 H          18.3744   73.0622   -8.4545 H       1  UNL1        0.2106
     15 O          17.0373   69.6783   -7.1568 O.2     1  UNL1       -0.2464
     16 O          15.5396   69.3062   -2.8137 O.2     1  UNL1       -0.2670
     17 N          18.4376   70.4167   -5.4386 N.ar    1  UNL1       -0.2551
     18 N          16.2933   69.4950   -4.9930 N.ar    1  UNL1       -0.2743
     19 C          17.2470   69.8529   -5.9550 C.ar    1  UNL1        0.3323
     20 C          18.5958   70.5775   -4.0674 C.ar    1  UNL1        0.0869
     21 C          17.6779   70.2315   -3.1628 C.ar    1  UNL1        0.0795
     22 C          16.4048   69.6361   -3.6192 C.ar    1  UNL1        0.2626
     23 H          15.4552   69.1023   -5.3286 H       1  UNL1        0.1734
     24 O          21.8140   71.3219   -1.2782 O.3     1  UNL1       -0.2703
     25 P          22.4095   71.1292    0.2124 P.3     1  UNL1        0.2208
     26 O          24.0063   71.0363   -0.0364 O.co2   1  UNL1       -0.4371
     27 O          21.8314   69.9629    0.9605 O.2     1  UNL1       -0.5170
     28 O          22.1915   72.5583    0.9282 O.3     1  UNL1       -0.2858
     29 O          23.1530   74.5881    1.6797 O.3     1  UNL1       -0.3226
     30 O          22.3146   72.6832    5.2485 O.3     1  UNL1       -0.3794
     31 O          23.4421   71.1924    3.0034 O.3     1  UNL1       -0.3775
     32 O          20.6331   74.8701    4.3316 O.3     1  UNL1       -0.3792
     33 C          22.1170   73.0272    3.8771 C.3     1  UNL1        0.1718
     34 C          23.3424   72.6105    3.0633 C.3     1  UNL1        0.1968
     35 C          21.9128   74.5416    3.7942 C.3     1  UNL1        0.1723
     36 C          23.2684   73.1652    1.6401 C.3     1  UNL1        0.2706
     37 C          21.9770   75.0342    2.3514 C.3     1  UNL1        0.1830
     38 H          22.4466   71.7251    5.3259 H       1  UNL1        0.2105
     39 H          23.4892   70.8336    3.9031 H       1  UNL1        0.2106
     40 H          20.5791   74.5619    5.2497 H       1  UNL1        0.2106
     41 O          23.3741   76.8811    1.9793 O.co2   1  UNL1       -0.5466
     42 O          21.2024   77.3127    2.5238 O.co2   1  UNL1       -0.5466
     43 C          22.1075   76.5218    2.3040 C.2     1  UNL1        0.0799
@<TRIPOS>UNITY_ATOM_ATTR
2 1
charge -1
26 1
charge -1
41 1
charge -1
@<TRIPOS>BOND
     1     1     4    1
     2     1    24    1
     3     1     2    1
     4     1     3    2
     5    25    28    1
     6    25    24    1
     7    25    26    1
     8    25    27    2
     9     6    11    1
    10     6    12    1
    11    29    36    1
    12    29    37    1
    13     7     9    1
    14     7    13    1
    15     8    10    1
    16     8    14    1
    17     4     5    1
    18    28    36    1
    19    30    33    1
    20    30    38    1
    21    31    34    1
    22    31    39    1
    23    32    35    1
    24    32    40    1
    25    41    43   ar
    26    15    19    2
    27    42    43   ar
    28    16    22    2
    29    17    12    1
    30    17    19   ar
    31    17    20   ar
    32    18    19   ar
    33    18    22   ar
    34    18    23    1
    35     9    10    1
    36     9    11    1
    37    10    12    1
    38    11     5    1
    39    33    34    1
    40    33    35    1
    41    34    36    1
    42    35    37    1
    43    37    43    1
    44    20    21   ar
    45    21    22   ar
@<TRIPOS>MOLECULE
*****
 43 45 0 0 0
SMALL
GASTEIGER

@<TRIPOS>ATOM
      1 P          23.0369   71.3544   -2.4826 P.3     1  UNL1        0.2189
      2 O          22.8434   72.9591   -2.4027 O.co2   1  UNL1       -0.4371
      3 O          24.3436   70.9021   -3.0656 O.2     1  UNL1       -0.5170
      4 O          21.7092   70.8407   -3.2515 O.3     1  UNL1       -0.3112
      5 C          21.0275   71.7450   -4.1012 C.3     1  UNL1        0.1811
      6 O          21.1850   71.1784   -6.4319 O.3     1  UNL1       -0.3308
      7 O          23.0370   73.5231   -6.6855 O.3     1  UNL1       -0.3794
      8 O          20.6850   74.5151   -7.6446 O.3     1  UNL1       -0.3779
      9 C          21.8799   73.3703   -5.8631 C.3     1  UNL1        0.1713
     10 C          20.6238   73.4643   -6.7030 C.3     1  UNL1        0.1895
     11 C          21.8336   71.9268   -5.3809 C.3     1  UNL1        0.1764
     12 C          20.5791   72.0942   -7.3579 C.3     1  UNL1        0.2383
     13 H          23.0881   74.4377   -7.0056 H       1  UNL1        0.2105
     14 H          20.7114   75.3659   -7.1782 H       1  UNL1        0.2106
     15 O          19.7625   70.8605   -9.7636 O.2     1  UNL1       -0.2464
     16 O          15.4082   70.4760   -8.3019 O.2     1  UNL1       -0.2670
     17 N          19.2381   71.6616   -7.6325 N.ar    1  UNL1       -0.2551
     18 N          17.5944   70.6711   -9.0337 N.ar    1  UNL1       -0.2743
     19 C          18.9328   71.0528   -8.8728 C.ar    1  UNL1        0.3323
     20 C          18.2428   71.8400   -6.6793 C.ar    1  UNL1        0.0869
     21 C          16.9715   71.4708   -6.8471 C.ar    1  UNL1        0.0795
     22 C          16.5690   70.8281   -8.1153 C.ar    1  UNL1        0.2626
     23 H          17.3573   70.2469   -9.8900 H       1  UNL1        0.1734
     24 O          22.7800   70.8815   -0.9584 O.3     1  UNL1       -0.2703
     25 P          21.6674   71.3390    0.1217 P.3     1  UNL1        0.2208
     26 O          21.6272   70.0975    1.1597 O.co2   1  UNL1       -0.4371
     27 O          20.3355   71.6882   -0.4766 O.2     1  UNL1       -0.5170
     28 O          22.3657   72.5368    0.9463 O.3     1  UNL1       -0.2858
     29 O          24.4757   73.5379    0.5525 O.3     1  UNL1       -0.3226
     30 O          24.0568   74.0365    4.6322 O.3     1  UNL1       -0.3794
     31 O          23.2946   71.5185    3.3621 O.3     1  UNL1       -0.3775
     32 O          23.6639   76.2904    2.8387 O.3     1  UNL1       -0.3792
     33 C          23.6113   73.9225    3.2807 C.3     1  UNL1        0.1718
     34 C          24.0207   72.5603    2.7201 C.3     1  UNL1        0.1968
     35 C          24.2607   75.0479    2.4722 C.3     1  UNL1        0.1723
     36 C          23.7660   72.4897    1.2138 C.3     1  UNL1        0.2706
     37 C          24.0695   74.8385    0.9728 C.3     1  UNL1        0.1830
     38 H          23.6569   73.3314    5.1653 H       1  UNL1        0.2105
     39 H          23.4513   71.5575    4.3183 H       1  UNL1        0.2106
     40 H          23.7784   76.4357    3.7909 H       1  UNL1        0.2106
     41 O          24.8789   75.4750   -1.1346 O.co2   1  UNL1       -0.5466
     42 O          25.6902   76.6008    0.6746 O.co2   1  UNL1       -0.5466
     43 C          24.9699   75.7397    0.1922 C.2     1  UNL1        0.0799
@<TRIPOS>UNITY_ATOM_ATTR
2 1
charge -1
26 1
charge -1
41 1
charge -1
@<TRIPOS>BOND
     1     1     4    1
     2     1    24    1
     3     1     2    1
     4     1     3    2
     5    25    28    1
     6    25    24    1
     7    25    26    1
     8    25    27    2
     9     6    11    1
    10     6    12    1
    11    29    36    1
    12    29    37    1
    13     7     9    1
    14     7    13    1
    15     8    10    1
    16     8    14    1
    17     4     5    1
    18    28    36    1
    19    30    33    1
    20    30    38    1
    21    31    34    1
    22    31    39    1
    23    32    35    1
    24    32    40    1
    25    41    43   ar
    26    15    19    2
    27    42    43   ar
    28    16    22    2
    29    17    12    1
    30    17    19   ar
    31    17    20   ar
    32    18    19   ar
    33    18    22   ar
    34    18    23    1
    35     9    10    1
    36     9    11    1
    37    10    12    1
    38    11     5    1
    39    33    34    1
    40    33    35    1
    41    34    36    1
    42    35    37    1
    43    37    43    1
    44    20    21   ar
    45    21    22   ar
@<TRIPOS>MOLECULE
*****
 43 45 0 0 0
SMALL
GASTEIGER

@<TRIPOS>ATOM
      1 P          23.4932   72.4430   -3.5368 P.3     1  UNL1        0.2189
      2 O          23.9095   70.9463   -3.0836 O.co2   1  UNL1       -0.4371
      3 O          24.5563   73.1992   -4.2783 O.2     1  UNL1       -0.5170
      4 O          22.9658   73.1301   -2.1702 O.3     1  UNL1       -0.3112
      5 C          21.9777   74.1402   -2.2589 C.3     1  UNL1        0.1811
      6 O          21.1511   72.5660   -0.6415 O.3     1  UNL1       -0.3308
      7 O          19.1006   74.6403    0.0542 O.3     1  UNL1       -0.3794
      8 O          20.9285   74.9133    2.0594 O.3     1  UNL1       -0.3779
      9 C          20.4663   74.8114   -0.3256 C.3     1  UNL1        0.1713
     10 C          21.3808   74.4199    0.8158 C.3     1  UNL1        0.1895
     11 C          20.7975   73.7587   -1.3746 C.3     1  UNL1        0.1764
     12 C          21.3468   72.9030    0.7411 C.3     1  UNL1        0.2383
     13 H          18.8657   75.3020    0.7241 H       1  UNL1        0.2105
     14 H          20.9696   75.8830    2.0568 H       1  UNL1        0.2106
     15 O          21.7018   70.1347    1.1738 O.2     1  UNL1       -0.2464
     16 O          26.0773   70.7177    2.5001 O.2     1  UNL1       -0.2670
     17 N          22.5684   72.3042    1.1993 N.ar    1  UNL1       -0.2551
     18 N          23.8804   70.4278    1.8349 N.ar    1  UNL1       -0.2743
     19 C          22.6418   70.9034    1.3846 C.ar    1  UNL1        0.3323
     20 C          23.6769   73.1012    1.4583 C.ar    1  UNL1        0.0869
     21 C          24.8508   72.6334    1.8869 C.ar    1  UNL1        0.0795
     22 C          25.0110   71.1810    2.1068 C.ar    1  UNL1        0.2626
     23 H          23.9551   69.4559    1.9733 H       1  UNL1        0.1734
     24 O          22.1304   72.2032   -4.3724 O.3     1  UNL1       -0.2703
     25 P          21.6187   72.8316   -5.7713 P.3     1  UNL1        0.2208
     26 O          22.6194   72.1736   -6.8603 O.co2   1  UNL1       -0.4371
     27 O          21.5796   74.3322   -5.7947 O.2     1  UNL1       -0.5170
     28 O          20.1964   72.1205   -6.0434 O.3     1  UNL1       -0.2858
     29 O          19.4654   69.9470   -5.4511 O.3     1  UNL1       -0.3226
     30 O          17.3756   70.6118   -8.9523 O.3     1  UNL1       -0.3794
     31 O          20.1801   71.3989   -8.7295 O.3     1  UNL1       -0.3775
     32 O          16.0184   70.7858   -6.3875 O.3     1  UNL1       -0.3792
     33 C          18.0126   70.9718   -7.7266 C.3     1  UNL1        0.1718
     34 C          19.4911   70.5868   -7.7858 C.3     1  UNL1        0.1968
     35 C          17.3123   70.2215   -6.5915 C.3     1  UNL1        0.1723
     36 C          20.1528   70.7443   -6.4161 C.3     1  UNL1        0.2706
     37 C          18.0995   70.3223   -5.2881 C.3     1  UNL1        0.1830
     38 H          17.8040   71.0767   -9.6883 H       1  UNL1        0.2105
     39 H          19.7653   71.3040   -9.6009 H       1  UNL1        0.2106
     40 H          15.5071   70.7280   -7.2097 H       1  UNL1        0.2106
     41 O          16.5515   68.6318   -4.7906 O.co2   1  UNL1       -0.5466
     42 O          18.0600   69.1711   -3.1680 O.co2   1  UNL1       -0.5466
     43 C          17.5970   69.3335   -4.2871 C.2     1  UNL1        0.0799
@<TRIPOS>UNITY_ATOM_ATTR
2 1
charge -1
26 1
charge -1
41 1
charge -1
@<TRIPOS>BOND
     1     1     4    1
     2     1    24    1
     3     1     2    1
     4     1     3    2
     5    25    28    1
     6    25    24    1
     7    25    26    1
     8    25    27    2
     9     6    11    1
    10     6    12    1
    11    29    36    1
    12    29    37    1
    13     7     9    1
    14     7    13    1
    15     8    10    1
    16     8    14    1
    17     4     5    1
    18    28    36    1
    19    30    33    1
    20    30    38    1
    21    31    34    1
    22    31    39    1
    23    32    35    1
    24    32    40    1
    25    41    43   ar
    26    15    19    2
    27    42    43   ar
    28    16    22    2
    29    17    12    1
    30    17    19   ar
    31    17    20   ar
    32    18    19   ar
    33    18    22   ar
    34    18    23    1
    35     9    10    1
    36     9    11    1
    37    10    12    1
    38    11     5    1
    39    33    34    1
    40    33    35    1
    41    34    36    1
    42    35    37    1
    43    37    43    1
    44    20    21   ar
    45    21    22   ar
@<TRIPOS>MOLECULE
*****
 43 45 0 0 0
SMALL
GASTEIGER

@<TRIPOS>ATOM
      1 P          21.8368   72.4404   -5.6265 P.3     1  UNL1        0.2189
      2 O          21.0228   73.8109   -5.3476 O.co2   1  UNL1       -0.4371
      3 O          23.1421   72.6141   -6.3461 O.2     1  UNL1       -0.5170
      4 O          20.7531   71.4867   -6.3572 O.3     1  UNL1       -0.3112
      5 C          20.2759   71.8618   -7.6362 C.3     1  UNL1        0.1811
      6 O          19.0278   69.8520   -7.2114 O.3     1  UNL1       -0.3308
      7 O          18.1478   70.0151  -10.0733 O.3     1  UNL1       -0.3794
      8 O          15.9865   70.9934   -8.7286 O.3     1  UNL1       -0.3779
      9 C          18.3821   71.0686   -9.1385 C.3     1  UNL1        0.1713
     10 C          17.2569   71.1320   -8.1274 C.3     1  UNL1        0.1895
     11 C          19.5683   70.6713   -8.2706 C.3     1  UNL1        0.1764
     12 C          17.5966   69.9740   -7.2045 C.3     1  UNL1        0.2383
     13 H          17.3941   70.2462  -10.6391 H       1  UNL1        0.2105
     14 H          15.8173   71.7550   -9.3059 H       1  UNL1        0.2106
     15 O          16.0083   68.1664   -5.7258 O.2     1  UNL1       -0.2464
     16 O          15.9558   70.9398   -2.0448 O.2     1  UNL1       -0.2670
     17 N          17.1536   70.1986   -5.8576 N.ar    1  UNL1       -0.2551
     18 N          15.9829   69.5499   -3.8942 N.ar    1  UNL1       -0.2743
     19 C          16.3589   69.2268   -5.2047 C.ar    1  UNL1        0.3323
     20 C          17.5073   71.3689   -5.1972 C.ar    1  UNL1        0.0869
     21 C          17.1413   71.6627   -3.9479 C.ar    1  UNL1        0.0795
     22 C          16.3094   70.7009   -3.1955 C.ar    1  UNL1        0.2626
     23 H          15.4276   68.8896   -3.4199 H       1  UNL1        0.1734
     24 O          21.9618   71.7864   -4.1536 O.3     1  UNL1       -0.2703
     25 P          23.1281   71.8954   -3.0393 P.3     1  UNL1        0.2208
     26 O          23.6788   73.4060   -3.2269 O.co2   1  UNL1       -0.4371
     27 O          24.1845   70.8342   -3.1477 O.2     1  UNL1       -0.5170
     28 O          22.3456   71.9195   -1.6288 O.3     1  UNL1       -0.2858
     29 O          23.9926   72.4588   -0.0146 O.3     1  UNL1       -0.3226
     30 O          20.5638   72.3489    2.2874 O.3     1  UNL1       -0.3794
     31 O          21.0350   70.3241    0.2349 O.3     1  UNL1       -0.3775
     32 O          21.7455   74.9007    1.5506 O.3     1  UNL1       -0.3792
     33 C          21.3333   72.5690    1.1052 C.3     1  UNL1        0.1718
     34 C          22.0062   71.2630    0.6820 C.3     1  UNL1        0.1968
     35 C          22.3870   73.6336    1.4183 C.3     1  UNL1        0.1723
     36 C          23.0167   71.5068   -0.4397 C.3     1  UNL1        0.2706
     37 C          23.4299   73.7285    0.3084 C.3     1  UNL1        0.1830
     38 H          19.8874   71.6757    2.1124 H       1  UNL1        0.2105
     39 H          20.3904   70.1649    0.9416 H       1  UNL1        0.2106
     40 H          21.0791   74.8538    2.2539 H       1  UNL1        0.2106
     41 O          25.1102   74.0136    1.9199 O.co2   1  UNL1       -0.5466
     42 O          25.0849   75.4790    0.1732 O.co2   1  UNL1       -0.5466
     43 C          24.6163   74.5158    0.7611 C.2     1  UNL1        0.0799
@<TRIPOS>UNITY_ATOM_ATTR
2 1
charge -1
26 1
charge -1
41 1
charge -1
@<TRIPOS>BOND
     1     1     4    1
     2     1    24    1
     3     1     2    1
     4     1     3    2
     5    25    28    1
     6    25    24    1
     7    25    26    1
     8    25    27    2
     9     6    11    1
    10     6    12    1
    11    29    36    1
    12    29    37    1
    13     7     9    1
    14     7    13    1
    15     8    10    1
    16     8    14    1
    17     4     5    1
    18    28    36    1
    19    30    33    1
    20    30    38    1
    21    31    34    1
    22    31    39    1
    23    32    35    1
    24    32    40    1
    25    41    43   ar
    26    15    19    2
    27    42    43   ar
    28    16    22    2
    29    17    12    1
    30    17    19   ar
    31    17    20   ar
    32    18    19   ar
    33    18    22   ar
    34    18    23    1
    35     9    10    1
    36     9    11    1
    37    10    12    1
    38    11     5    1
    39    33    34    1
    40    33    35    1
    41    34    36    1
    42    35    37    1
    43    37    43    1
    44    20    21   ar
    45    21    22   ar
@<TRIPOS>MOLECULE
*****
 43 45 0 0 0
SMALL
GASTEIGER

@<TRIPOS>ATOM
      1 P          22.9259   72.9181   -4.0868 P.3     1  UNL1        0.2189
      2 O          23.2652   73.9926   -5.2483 O.co2   1  UNL1       -0.4371
      3 O          24.0463   71.9805   -3.7441 O.2     1  UNL1       -0.5170
      4 O          21.5556   72.2208   -4.5908 O.3     1  UNL1       -0.3112
      5 C          21.0073   71.1697   -3.8167 C.3     1  UNL1        0.1811
      6 O          18.9352   71.9667   -4.7380 O.3     1  UNL1       -0.3308
      7 O          17.6086   70.7020   -2.3648 O.3     1  UNL1       -0.3794
      8 O          17.1575   68.8785   -4.3415 O.3     1  UNL1       -0.3779
      9 C          18.7403   70.2553   -3.1120 C.3     1  UNL1        0.1713
     10 C          18.2993   69.7024   -4.4507 C.3     1  UNL1        0.1895
     11 C          19.5454   71.4805   -3.5228 C.3     1  UNL1        0.1764
     12 C          18.0316   70.9707   -5.2430 C.3     1  UNL1        0.2383
     13 H          17.0787   69.9365   -2.0912 H       1  UNL1        0.2105
     14 H          17.3795   68.0846   -3.8291 H       1  UNL1        0.2106
     15 O          15.9912   70.7099   -7.1783 O.2     1  UNL1       -0.2464
     16 O          19.0440   70.3134  -10.6087 O.2     1  UNL1       -0.2670
     17 N          18.2651   70.7982   -6.6489 N.ar    1  UNL1       -0.2551
     18 N          17.5136   70.5117   -8.8848 N.ar    1  UNL1       -0.2743
     19 C          17.1699   70.6768   -7.5366 C.ar    1  UNL1        0.3323
     20 C          19.5659   70.7525   -7.1354 C.ar    1  UNL1        0.0869
     21 C          19.8777   70.5947   -8.4233 C.ar    1  UNL1        0.0795
     22 C          18.7920   70.4594   -9.4164 C.ar    1  UNL1        0.2626
     23 H          16.7680   70.4229   -9.5217 H       1  UNL1        0.1734
     24 O          22.4302   73.8508   -2.8632 O.3     1  UNL1       -0.2703
     25 P          23.2632   74.6289   -1.7167 P.3     1  UNL1        0.2208
     26 O          22.6021   76.1065   -1.7177 O.co2   1  UNL1       -0.4371
     27 O          24.7506   74.6167   -1.9208 O.2     1  UNL1       -0.5170
     28 O          22.7721   73.9640   -0.3314 O.3     1  UNL1       -0.2858
     29 O          23.7631   73.5570    1.7808 O.3     1  UNL1       -0.3226
     30 O          21.6231   70.0760    1.1715 O.3     1  UNL1       -0.3794
     31 O          23.1271   71.2921   -1.0179 O.3     1  UNL1       -0.3775
     32 O          20.6423   72.0856    3.0289 O.3     1  UNL1       -0.3792
     33 C          21.8966   71.4731    1.0652 C.3     1  UNL1        0.1718
     34 C          23.2304   71.6802    0.3472 C.3     1  UNL1        0.1968
     35 C          21.9585   72.0519    2.4805 C.3     1  UNL1        0.1723
     36 C          23.6678   73.1440    0.4170 C.3     1  UNL1        0.2706
     37 C          22.5225   73.4698    2.4783 C.3     1  UNL1        0.1830
     38 H          21.5792   69.6865    0.2840 H       1  UNL1        0.2105
     39 H          22.8497   70.3643   -1.0697 H       1  UNL1        0.2106
     40 H          20.2718   71.1892    3.0359 H       1  UNL1        0.2106
     41 O          22.8234   72.8497    4.7203 O.co2   1  UNL1       -0.5466
     42 O          23.1982   75.0345    4.1861 O.co2   1  UNL1       -0.5466
     43 C          22.8853   73.8985    3.8628 C.2     1  UNL1        0.0799
@<TRIPOS>UNITY_ATOM_ATTR
2 1
charge -1
26 1
charge -1
41 1
charge -1
@<TRIPOS>BOND
     1     1     4    1
     2     1    24    1
     3     1     2    1
     4     1     3    2
     5    25    28    1
     6    25    24    1
     7    25    26    1
     8    25    27    2
     9     6    11    1
    10     6    12    1
    11    29    36    1
    12    29    37    1
    13     7     9    1
    14     7    13    1
    15     8    10    1
    16     8    14    1
    17     4     5    1
    18    28    36    1
    19    30    33    1
    20    30    38    1
    21    31    34    1
    22    31    39    1
    23    32    35    1
    24    32    40    1
    25    41    43   ar
    26    15    19    2
    27    42    43   ar
    28    16    22    2
    29    17    12    1
    30    17    19   ar
    31    17    20   ar
    32    18    19   ar
    33    18    22   ar
    34    18    23    1
    35     9    10    1
    36     9    11    1
    37    10    12    1
    38    11     5    1
    39    33    34    1
    40    33    35    1
    41    34    36    1
    42    35    37    1
    43    37    43    1
    44    20    21   ar
    45    21    22   ar
@<TRIPOS>MOLECULE
*****
 43 45 0 0 0
SMALL
GASTEIGER

@<TRIPOS>ATOM
      1 P          19.4876   72.2088   -2.0675 P.3     1  UNL1        0.2189
      2 O          18.3704   71.2881   -1.3443 O.co2   1  UNL1       -0.4371
      3 O          18.9999   73.5501   -2.5312 O.2     1  UNL1       -0.5170
      4 O          20.0986   71.2476   -3.2167 O.3     1  UNL1       -0.3112
      5 C          19.3214   70.1529   -3.6662 C.3     1  UNL1        0.1811
      6 O          17.7282   71.2952   -5.0571 O.3     1  UNL1       -0.3308
      7 O          15.6102   69.9190   -3.4410 O.3     1  UNL1       -0.3794
      8 O          15.6976   68.4141   -5.7134 O.3     1  UNL1       -0.3779
      9 C          16.8880   69.4350   -3.8552 C.3     1  UNL1        0.1713
     10 C          16.8695   69.1042   -5.3325 C.3     1  UNL1        0.1895
     11 C          17.8705   70.5969   -3.8012 C.3     1  UNL1        0.1764
     12 C          16.9688   70.4817   -5.9654 C.3     1  UNL1        0.2383
     13 H          14.9655   69.1942   -3.4673 H       1  UNL1        0.2105
     14 H          15.6814   67.5435   -5.2848 H       1  UNL1        0.2106
     15 O          15.6523   70.6188   -8.4603 O.2     1  UNL1       -0.2464
     16 O          19.6283   70.3668  -10.7781 O.2     1  UNL1       -0.2670
     17 N          17.6356   70.4540   -7.2364 N.ar    1  UNL1       -0.2551
     18 N          17.6337   70.4921   -9.6123 N.ar    1  UNL1       -0.2743
     19 C          16.8811   70.5285   -8.4311 C.ar    1  UNL1        0.3323
     20 C          19.0206   70.3557   -7.2911 C.ar    1  UNL1        0.0869
     21 C          19.7241   70.3223   -8.4246 C.ar    1  UNL1        0.0795
     22 C          19.0118   70.3945   -9.7172 C.ar    1  UNL1        0.2626
     23 H          17.1302   70.5406  -10.4570 H       1  UNL1        0.1734
     24 O          20.6751   72.2659   -0.9723 O.3     1  UNL1       -0.2703
     25 P          22.2785   72.3719   -1.1497 P.3     1  UNL1        0.2208
     26 O          22.4512   73.5294   -2.2680 O.co2   1  UNL1       -0.4371
     27 O          22.9469   71.0729   -1.4960 O.2     1  UNL1       -0.5170
     28 O          22.7981   73.0480    0.2197 O.3     1  UNL1       -0.2858
     29 O          24.8379   73.3355    1.3883 O.3     1  UNL1       -0.3226
     30 O          22.3126   72.0712    4.4037 O.3     1  UNL1       -0.3794
     31 O          22.2203   70.8117    1.7693 O.3     1  UNL1       -0.3775
     32 O          23.0722   74.8708    4.2145 O.3     1  UNL1       -0.3792
     33 C          22.6609   72.7309    3.1866 C.3     1  UNL1        0.1718
     34 C          23.2333   71.7139    2.1988 C.3     1  UNL1        0.1968
     35 C          23.7039   73.8027    3.5113 C.3     1  UNL1        0.1723
     36 C          23.8280   72.4138    0.9760 C.3     1  UNL1        0.2706
     37 C          24.3406   74.3630    2.2428 C.3     1  UNL1        0.1830
     38 H          21.6508   71.3854    4.2220 H       1  UNL1        0.2105
     39 H          21.8384   70.3643    2.5403 H       1  UNL1        0.2106
     40 H          22.6628   74.5276    5.0241 H       1  UNL1        0.2106
     41 O          25.9660   75.8806    1.4970 O.co2   1  UNL1       -0.5466
     42 O          26.1371   75.1474    3.6493 O.co2   1  UNL1       -0.5466
     43 C          25.5672   75.1514    2.5685 C.2     1  UNL1        0.0799
@<TRIPOS>UNITY_ATOM_ATTR
2 1
charge -1
26 1
charge -1
41 1
charge -1
@<TRIPOS>BOND
     1     1     4    1
     2     1    24    1
     3     1     2    1
     4     1     3    2
     5    25    28    1
     6    25    24    1
     7    25    26    1
     8    25    27    2
     9     6    11    1
    10     6    12    1
    11    29    36    1
    12    29    37    1
    13     7     9    1
    14     7    13    1
    15     8    10    1
    16     8    14    1
    17     4     5    1
    18    28    36    1
    19    30    33    1
    20    30    38    1
    21    31    34    1
    22    31    39    1
    23    32    35    1
    24    32    40    1
    25    41    43   ar
    26    15    19    2
    27    42    43   ar
    28    16    22    2
    29    17    12    1
    30    17    19   ar
    31    17    20   ar
    32    18    19   ar
    33    18    22   ar
    34    18    23    1
    35     9    10    1
    36     9    11    1
    37    10    12    1
    38    11     5    1
    39    33    34    1
    40    33    35    1
    41    34    36    1
    42    35    37    1
    43    37    43    1
    44    20    21   ar
    45    21    22   ar
@<TRIPOS>MOLECULE
*****
 43 45 0 0 0
SMALL
GASTEIGER

@<TRIPOS>ATOM
      1 P          22.0598   71.5540   -0.2464 P.3     1  UNL1        0.2189
      2 O          21.1133   70.4659    0.4879 O.co2   1  UNL1       -0.4371
      3 O          23.3190   70.9978   -0.8438 O.2     1  UNL1       -0.5170
      4 O          22.2616   72.7089    0.8687 O.3     1  UNL1       -0.3112
      5 C          22.9158   72.3735    2.0786 C.3     1  UNL1        0.1811
      6 O          22.5966   72.3315    4.4606 O.3     1  UNL1       -0.3308
      7 O          19.7738   73.1806    3.9103 O.3     1  UNL1       -0.3794
      8 O          20.9640   75.5174    4.6579 O.3     1  UNL1       -0.3779
      9 C          20.9761   73.5472    3.2330 C.3     1  UNL1        0.1713
     10 C          21.7755   74.5201    4.0737 C.3     1  UNL1        0.1895
     11 C          21.8883   72.3285    3.2022 C.3     1  UNL1        0.1764
     12 C          22.4063   73.6008    5.1057 C.3     1  UNL1        0.2383
     13 H          19.1750   73.9435    3.9425 H       1  UNL1        0.2105
     14 H          20.5860   76.0763    3.9602 H       1  UNL1        0.2106
     15 O          23.1091   73.8920    7.8256 O.2     1  UNL1       -0.2464
     16 O          27.3074   75.4681    6.7608 O.2     1  UNL1       -0.2670
     17 N          23.6764   74.0850    5.5674 N.ar    1  UNL1       -0.2551
     18 N          25.1990   74.6777    7.2927 N.ar    1  UNL1       -0.2743
     19 C          23.9282   74.1934    6.9555 C.ar    1  UNL1        0.3323
     20 C          24.6565   74.4446    4.6504 C.ar    1  UNL1        0.0869
     21 C          25.8632   74.9045    4.9869 C.ar    1  UNL1        0.0795
     22 C          26.2064   75.0488    6.4169 C.ar    1  UNL1        0.2626
     23 H          25.3969   74.7639    8.2533 H       1  UNL1        0.1734
     24 O          21.0588   72.2466   -1.3099 O.3     1  UNL1       -0.2703
     25 P          19.8954   71.6162   -2.2388 P.3     1  UNL1        0.2208
     26 O          18.6192   72.5615   -1.9258 O.co2   1  UNL1       -0.4371
     27 O          19.6513   70.1524   -2.0114 O.2     1  UNL1       -0.5170
     28 O          20.3242   71.9970   -3.7466 O.3     1  UNL1       -0.2858
     29 O          19.4486   70.2825   -5.1260 O.3     1  UNL1       -0.3226
     30 O          21.1436   72.8192   -7.9117 O.3     1  UNL1       -0.3794
     31 O          22.5378   72.2162   -5.4163 O.3     1  UNL1       -0.3775
     32 O          18.2590   72.7614   -7.5554 O.3     1  UNL1       -0.3792
     33 C          20.4894   72.4752   -6.6903 C.3     1  UNL1        0.1718
     34 C          21.3799   71.5321   -5.8809 C.3     1  UNL1        0.1968
     35 C          19.1665   71.7896   -7.0393 C.3     1  UNL1        0.1723
     36 C          20.6235   70.9612   -4.6806 C.3     1  UNL1        0.2706
     37 C          18.5365   71.1372   -5.8121 C.3     1  UNL1        0.1830
     38 H          21.9870   73.2564   -7.7149 H       1  UNL1        0.2105
     39 H          23.0225   72.5812   -6.1728 H       1  UNL1        0.2106
     40 H          18.6481   73.1843   -8.3369 H       1  UNL1        0.2106
     41 O          17.5164   69.9130   -7.5332 O.co2   1  UNL1       -0.5466
     42 O          16.5868   69.7610   -5.4567 O.co2   1  UNL1       -0.5466
     43 C          17.4390   70.2053   -6.2113 C.2     1  UNL1        0.0799
@<TRIPOS>UNITY_ATOM_ATTR
2 1
charge -1
26 1
charge -1
41 1
charge -1
@<TRIPOS>BOND
     1     1     4    1
     2     1    24    1
     3     1     2    1
     4     1     3    2
     5    25    28    1
     6    25    24    1
     7    25    26    1
     8    25    27    2
     9     6    11    1
    10     6    12    1
    11    29    36    1
    12    29    37    1
    13     7     9    1
    14     7    13    1
    15     8    10    1
    16     8    14    1
    17     4     5    1
    18    28    36    1
    19    30    33    1
    20    30    38    1
    21    31    34    1
    22    31    39    1
    23    32    35    1
    24    32    40    1
    25    41    43   ar
    26    15    19    2
    27    42    43   ar
    28    16    22    2
    29    17    12    1
    30    17    19   ar
    31    17    20   ar
    32    18    19   ar
    33    18    22   ar
    34    18    23    1
    35     9    10    1
    36     9    11    1
    37    10    12    1
    38    11     5    1
    39    33    34    1
    40    33    35    1
    41    34    36    1
    42    35    37    1
    43    37    43    1
    44    20    21   ar
    45    21    22   ar
@<TRIPOS>MOLECULE
*****
 43 45 0 0 0
SMALL
GASTEIGER

@<TRIPOS>ATOM
      1 P          20.3130   72.2690   -1.2045 P.3     1  UNL1        0.2189
      2 O          20.0325   70.6752   -1.2033 O.co2   1  UNL1       -0.4371
      3 O          19.1045   73.1252   -0.9625 O.2     1  UNL1       -0.5170
      4 O          21.0879   72.5261   -2.6014 O.3     1  UNL1       -0.3112
      5 C          20.4061   72.2557   -3.8125 C.3     1  UNL1        0.1811
      6 O          20.6869   70.6739   -5.6005 O.3     1  UNL1       -0.3308
      7 O          23.1763   72.1909   -6.3025 O.3     1  UNL1       -0.3794
      8 O          21.3786   73.1165   -8.1321 O.3     1  UNL1       -0.3779
      9 C          21.9305   72.6795   -5.8048 C.3     1  UNL1        0.1713
     10 C          20.8815   72.6480   -6.8960 C.3     1  UNL1        0.1895
     11 C          21.3886   71.6597   -4.8124 C.3     1  UNL1        0.1764
     12 C          20.5111   71.1752   -6.9350 C.3     1  UNL1        0.2383
     13 H          23.5421   72.8258   -6.9387 H       1  UNL1        0.2105
     14 H          21.5996   74.0585   -8.0556 H       1  UNL1        0.2106
     15 O          19.6585   70.9517   -9.6182 O.2     1  UNL1       -0.2464
     16 O          15.2627   70.3620   -8.3637 O.2     1  UNL1       -0.2670
     17 N          19.1497   70.9630   -7.3380 N.ar    1  UNL1       -0.2551
     18 N          17.4698   70.6592   -8.9909 N.ar    1  UNL1       -0.2743
     19 C          18.8274   70.8653   -8.7123 C.ar    1  UNL1        0.3323
     20 C          18.1514   70.8524   -6.3778 C.ar    1  UNL1        0.0869
     21 C          16.8617   70.6559   -6.6587 C.ar    1  UNL1        0.0795
     22 C          16.4406   70.5433   -8.0706 C.ar    1  UNL1        0.2626
     23 H          17.2208   70.5900   -9.9409 H       1  UNL1        0.1734
     24 O          21.4851   72.4321   -0.1034 O.3     1  UNL1       -0.2703
     25 P          21.5734   71.9393    1.4338 P.3     1  UNL1        0.2208
     26 O          21.8670   70.3532    1.2974 O.co2   1  UNL1       -0.4371
     27 O          20.3650   72.2758    2.2587 O.2     1  UNL1       -0.5170
     28 O          22.9552   72.5632    1.9849 O.3     1  UNL1       -0.2858
     29 O          24.7754   71.6941    3.2262 O.3     1  UNL1       -0.3226
     30 O          24.3837   75.4753    4.8439 O.3     1  UNL1       -0.3794
     31 O          22.0190   73.8627    4.2588 O.3     1  UNL1       -0.3775
     32 O          26.5460   74.8989    2.9884 O.3     1  UNL1       -0.3792
     33 C          24.3226   74.4838    3.8187 C.3     1  UNL1        0.1718
     34 C          23.3557   73.3754    4.2356 C.3     1  UNL1        0.1968
     35 C          25.7307   73.9167    3.6248 C.3     1  UNL1        0.1723
     36 C          23.4365   72.1887    3.2744 C.3     1  UNL1        0.2706
     37 C          25.7113   72.6620    2.7566 C.3     1  UNL1        0.1830
     38 H          23.4999   75.8500    4.9847 H       1  UNL1        0.2105
     39 H          21.9605   74.6161    4.8666 H       1  UNL1        0.2106
     40 H          26.5666   75.7028    3.5308 H       1  UNL1        0.2106
     41 O          27.9363   72.6855    3.4983 O.co2   1  UNL1       -0.5466
     42 O          27.2293   70.8229    2.3893 O.co2   1  UNL1       -0.5466
     43 C          27.0150   71.9372    2.8425 C.2     1  UNL1        0.0799
@<TRIPOS>UNITY_ATOM_ATTR
2 1
charge -1
26 1
charge -1
41 1
charge -1
@<TRIPOS>BOND
     1     1     4    1
     2     1    24    1
     3     1     2    1
     4     1     3    2
     5    25    28    1
     6    25    24    1
     7    25    26    1
     8    25    27    2
     9     6    11    1
    10     6    12    1
    11    29    36    1
    12    29    37    1
    13     7     9    1
    14     7    13    1
    15     8    10    1
    16     8    14    1
    17     4     5    1
    18    28    36    1
    19    30    33    1
    20    30    38    1
    21    31    34    1
    22    31    39    1
    23    32    35    1
    24    32    40    1
    25    41    43   ar
    26    15    19    2
    27    42    43   ar
    28    16    22    2
    29    17    12    1
    30    17    19   ar
    31    17    20   ar
    32    18    19   ar
    33    18    22   ar
    34    18    23    1
    35     9    10    1
    36     9    11    1
    37    10    12    1
    38    11     5    1
    39    33    34    1
    40    33    35    1
    41    34    36    1
    42    35    37    1
    43    37    43    1
    44    20    21   ar
    45    21    22   ar
@<TRIPOS>MOLECULE
*****
 43 45 0 0 0
SMALL
GASTEIGER

@<TRIPOS>ATOM
      1 P          20.6080   73.6915   -3.9747 P.3     1  UNL1        0.2189
      2 O          19.8162   74.9995   -4.5047 O.co2   1  UNL1       -0.4371
      3 O          22.0645   73.6443   -4.3325 O.2     1  UNL1       -0.5170
      4 O          19.7131   72.4532   -4.5075 O.3     1  UNL1       -0.3112
      5 C          19.1456   71.5708   -3.5568 C.3     1  UNL1        0.1811
      6 O          17.3083   71.9714   -5.0540 O.3     1  UNL1       -0.3308
      7 O          15.6189   70.4667   -3.0859 O.3     1  UNL1       -0.3794
      8 O          16.0812   68.6028   -5.0220 O.3     1  UNL1       -0.3779
      9 C          16.9766   70.2441   -3.4675 C.3     1  UNL1        0.1713
     10 C          17.0385   69.6265   -4.8484 C.3     1  UNL1        0.1895
     11 C          17.6289   71.6008   -3.6956 C.3     1  UNL1        0.1764
     12 C          16.7796   70.8271   -5.7426 C.3     1  UNL1        0.2383
     13 H          15.1813   69.6139   -2.9346 H       1  UNL1        0.2105
     14 H          16.2899   67.8615   -4.4314 H       1  UNL1        0.2106
     15 O          15.4672   71.1032   -8.2282 O.2     1  UNL1       -0.2464
     16 O          19.3634   70.3567  -10.5749 O.2     1  UNL1       -0.2670
     17 N          17.4270   70.7097   -7.0186 N.ar    1  UNL1       -0.2551
     18 N          17.4088   70.7301   -9.3946 N.ar    1  UNL1       -0.2743
     19 C          16.6764   70.8657   -8.2079 C.ar    1  UNL1        0.3323
     20 C          18.7895   70.4449   -7.0832 C.ar    1  UNL1        0.0869
     21 C          19.4738   70.3185   -8.2219 C.ar    1  UNL1        0.0795
     22 C          18.7641   70.4664   -9.5095 C.ar    1  UNL1        0.2626
     23 H          16.9074   70.8325  -10.2357 H       1  UNL1        0.1734
     24 O          20.3047   73.7023   -2.3870 O.3     1  UNL1       -0.2703
     25 P          20.9237   74.6011   -1.1942 P.3     1  UNL1        0.2208
     26 O          19.6331   74.9384   -0.2773 O.co2   1  UNL1       -0.4371
     27 O          21.6818   75.8090   -1.6632 O.2     1  UNL1       -0.5170
     28 O          21.7917   73.5672   -0.3110 O.3     1  UNL1       -0.2858
     29 O          24.1205   73.9821   -0.1937 O.3     1  UNL1       -0.3226
     30 O          23.8657   70.1697    1.3775 O.3     1  UNL1       -0.3794
     31 O          22.2934   70.9120   -0.9701 O.3     1  UNL1       -0.3775
     32 O          24.2876   72.4470    3.1346 O.3     1  UNL1       -0.3792
     33 C          23.4192   71.4966    1.0980 C.3     1  UNL1        0.1718
     34 C          23.3390   71.7014   -0.4150 C.3     1  UNL1        0.1968
     35 C          24.4230   72.4731    1.7149 C.3     1  UNL1        0.1723
     36 C          23.0880   73.1711   -0.7555 C.3     1  UNL1        0.2706
     37 C          24.1836   73.8995    1.2283 C.3     1  UNL1        0.1830
     38 H          23.2431   69.5315    0.9949 H       1  UNL1        0.2105
     39 H          22.4461   69.9783   -0.7576 H       1  UNL1        0.2106
     40 H          24.4374   71.5445    3.4571 H       1  UNL1        0.2106
     41 O          25.4103   75.8315    0.7145 O.co2   1  UNL1       -0.5466
     42 O          26.1326   74.5792    2.4778 O.co2   1  UNL1       -0.5466
     43 C          25.3457   74.7765    1.5641 C.2     1  UNL1        0.0799
@<TRIPOS>UNITY_ATOM_ATTR
2 1
charge -1
26 1
charge -1
41 1
charge -1
@<TRIPOS>BOND
     1     1     4    1
     2     1    24    1
     3     1     2    1
     4     1     3    2
     5    25    28    1
     6    25    24    1
     7    25    26    1
     8    25    27    2
     9     6    11    1
    10     6    12    1
    11    29    36    1
    12    29    37    1
    13     7     9    1
    14     7    13    1
    15     8    10    1
    16     8    14    1
    17     4     5    1
    18    28    36    1
    19    30    33    1
    20    30    38    1
    21    31    34    1
    22    31    39    1
    23    32    35    1
    24    32    40    1
    25    41    43   ar
    26    15    19    2
    27    42    43   ar
    28    16    22    2
    29    17    12    1
    30    17    19   ar
    31    17    20   ar
    32    18    19   ar
    33    18    22   ar
    34    18    23    1
    35     9    10    1
    36     9    11    1
    37    10    12    1
    38    11     5    1
    39    33    34    1
    40    33    35    1
    41    34    36    1
    42    35    37    1
    43    37    43    1
    44    20    21   ar
    45    21    22   ar
@<TRIPOS>MOLECULE
*****
 43 45 0 0 0
SMALL
GASTEIGER

@<TRIPOS>ATOM
      1 P          23.4241   72.3377   -3.4907 P.3     1  UNL1        0.2189
      2 O          24.0546   70.8734   -3.2130 O.co2   1  UNL1       -0.4371
      3 O          24.4001   73.3643   -3.9860 O.2     1  UNL1       -0.5170
      4 O          22.6624   72.7009   -2.1101 O.3     1  UNL1       -0.3112
      5 C          23.4243   72.7860   -0.9198 C.3     1  UNL1        0.1811
      6 O          24.4604   71.2744    0.6356 O.3     1  UNL1       -0.3308
      7 O          21.7038   70.2153    1.1563 O.3     1  UNL1       -0.3794
      8 O          22.1291   71.8488    3.2981 O.3     1  UNL1       -0.3779
      9 C          22.1214   71.5534    0.8846 C.3     1  UNL1        0.1713
     10 C          22.8103   72.1438    2.0966 C.3     1  UNL1        0.1895
     11 C          23.2557   71.4947   -0.1295 C.3     1  UNL1        0.1764
     12 C          24.1819   71.4942    2.0275 C.3     1  UNL1        0.2383
     13 H          20.9795   70.2271    1.8020 H       1  UNL1        0.2105
     14 H          21.2621   72.2851    3.2937 H       1  UNL1        0.2106
     15 O          26.8605   70.6816    2.4031 O.2     1  UNL1       -0.2464
     16 O          28.0446   74.7702    4.1710 O.2     1  UNL1       -0.2670
     17 N          25.2110   72.3262    2.5839 N.ar    1  UNL1       -0.2551
     18 N          27.4475   72.7184    3.2842 N.ar    1  UNL1       -0.2743
     19 C          26.5247   71.8215    2.7300 C.ar    1  UNL1        0.3323
     20 C          24.9154   73.6261    2.9762 C.ar    1  UNL1        0.0869
     21 C          25.8057   74.4693    3.5028 C.ar    1  UNL1        0.0795
     22 C          27.2008   74.0199    3.6901 C.ar    1  UNL1        0.2626
     23 H          28.3683   72.3889    3.3977 H       1  UNL1        0.1734
     24 O          22.2061   72.0219   -4.5054 O.3     1  UNL1       -0.2703
     25 P          21.5484   72.9120   -5.6839 P.3     1  UNL1        0.2208
     26 O          22.4992   72.6011   -6.9566 O.co2   1  UNL1       -0.4371
     27 O          21.4154   74.3703   -5.3530 O.2     1  UNL1       -0.5170
     28 O          20.1557   72.1733   -6.0260 O.3     1  UNL1       -0.2858
     29 O          19.4699   69.9773   -5.4633 O.3     1  UNL1       -0.3226
     30 O          17.4473   70.6067   -9.0102 O.3     1  UNL1       -0.3794
     31 O          20.2233   71.4678   -8.7156 O.3     1  UNL1       -0.3775
     32 O          16.0248   70.7284   -6.4779 O.3     1  UNL1       -0.3792
     33 C          18.0448   70.9763   -7.7675 C.3     1  UNL1        0.1718
     34 C          19.5341   70.6317   -7.7932 C.3     1  UNL1        0.1968
     35 C          17.3382   70.2004   -6.6537 C.3     1  UNL1        0.1723
     36 C          20.1584   70.7987   -6.4071 C.3     1  UNL1        0.2706
     37 C          18.0908   70.3146   -5.3312 C.3     1  UNL1        0.1830
     38 H          17.8804   71.0874   -9.7331 H       1  UNL1        0.2105
     39 H          19.8322   71.3670   -9.5972 H       1  UNL1        0.2106
     40 H          15.5352   70.6618   -7.3125 H       1  UNL1        0.2106
     41 O          18.5822   68.9332   -3.5004 O.co2   1  UNL1       -0.5466
     42 O          16.4494   68.8746   -4.3048 O.co2   1  UNL1       -0.5466
     43 C          17.5916   69.3065   -4.3480 C.2     1  UNL1        0.0799
@<TRIPOS>UNITY_ATOM_ATTR
2 1
charge -1
26 1
charge -1
41 1
charge -1
@<TRIPOS>BOND
     1     1     4    1
     2     1    24    1
     3     1     2    1
     4     1     3    2
     5    25    28    1
     6    25    24    1
     7    25    26    1
     8    25    27    2
     9     6    11    1
    10     6    12    1
    11    29    36    1
    12    29    37    1
    13     7     9    1
    14     7    13    1
    15     8    10    1
    16     8    14    1
    17     4     5    1
    18    28    36    1
    19    30    33    1
    20    30    38    1
    21    31    34    1
    22    31    39    1
    23    32    35    1
    24    32    40    1
    25    41    43   ar
    26    15    19    2
    27    42    43   ar
    28    16    22    2
    29    17    12    1
    30    17    19   ar
    31    17    20   ar
    32    18    19   ar
    33    18    22   ar
    34    18    23    1
    35     9    10    1
    36     9    11    1
    37    10    12    1
    38    11     5    1
    39    33    34    1
    40    33    35    1
    41    34    36    1
    42    35    37    1
    43    37    43    1
    44    20    21   ar
    45    21    22   ar
@<TRIPOS>MOLECULE
*****
 43 45 0 0 0
SMALL
GASTEIGER

@<TRIPOS>ATOM
      1 P          21.8663   72.4353   -5.6811 P.3     1  UNL1        0.2189
      2 O          21.1258   73.8443   -5.3890 O.co2   1  UNL1       -0.4371
      3 O          23.1299   72.5381   -6.4839 O.2     1  UNL1       -0.5170
      4 O          20.7023   71.5095   -6.3184 O.3     1  UNL1       -0.3112
      5 C          20.1043   71.9173   -7.5352 C.3     1  UNL1        0.1811
      6 O          18.8404   69.9117   -7.1380 O.3     1  UNL1       -0.3308
      7 O          18.0960   70.0282  -10.0403 O.3     1  UNL1       -0.3794
      8 O          15.8724   71.0227   -8.8145 O.3     1  UNL1       -0.3779
      9 C          18.2845   71.0966   -9.1122 C.3     1  UNL1        0.1713
     10 C          17.1128   71.1734   -8.1563 C.3     1  UNL1        0.1895
     11 C          19.4291   70.7155   -8.1833 C.3     1  UNL1        0.1764
     12 C          17.4103   70.0307   -7.2004 C.3     1  UNL1        0.2383
     13 H          17.3694   70.2488  -10.6446 H       1  UNL1        0.2105
     14 H          15.7294   71.7748   -9.4110 H       1  UNL1        0.2106
     15 O          16.3304   68.0404   -5.5125 O.2     1  UNL1       -0.2464
     16 O          15.4975   71.0838   -2.1527 O.2     1  UNL1       -0.2670
     17 N          16.9040   70.2753   -5.8796 N.ar    1  UNL1       -0.2551
     18 N          15.9157   69.5583   -3.8411 N.ar    1  UNL1       -0.2743
     19 C          16.3827   69.2056   -5.1141 C.ar    1  UNL1        0.3323
     20 C          16.9284   71.5617   -5.3547 C.ar    1  UNL1        0.0869
     21 C          16.4797   71.8825   -4.1395 C.ar    1  UNL1        0.0795
     22 C          15.9183   70.8232   -3.2757 C.ar    1  UNL1        0.2626
     23 H          15.5462   68.8306   -3.2904 H       1  UNL1        0.1734
     24 O          22.0572   71.8121   -4.2019 O.3     1  UNL1       -0.2703
     25 P          23.2583   71.9685   -3.1311 P.3     1  UNL1        0.2208
     26 O          23.9326   73.3834   -3.5358 O.co2   1  UNL1       -0.4371
     27 O          24.2153   70.8121   -3.1059 O.2     1  UNL1       -0.5170
     28 O          22.5193   72.2567   -1.7264 O.3     1  UNL1       -0.2858
     29 O          23.2071   70.7625   -0.0224 O.3     1  UNL1       -0.3226
     30 O          20.1415   72.8103    1.8423 O.3     1  UNL1       -0.3794
     31 O          19.8708   71.9467   -0.9354 O.3     1  UNL1       -0.3775
     32 O          22.9088   73.4085    2.5018 O.3     1  UNL1       -0.3792
     33 C          21.2385   72.6408    0.9445 C.3     1  UNL1        0.1718
     34 C          20.9126   71.5339   -0.0585 C.3     1  UNL1        0.1968
     35 C          22.4713   72.2653    1.7697 C.3     1  UNL1        0.1723
     36 C          22.1444   71.1661   -0.8869 C.3     1  UNL1        0.2706
     37 C          23.6149   71.7901    0.8781 C.3     1  UNL1        0.1830
     38 H          19.3465   73.0494    1.3402 H       1  UNL1        0.2105
     39 H          19.0861   72.1819   -0.4165 H       1  UNL1        0.2106
     40 H          22.1901   73.7211    3.0733 H       1  UNL1        0.2106
     41 O          25.4956   72.0441    2.2564 O.co2   1  UNL1       -0.5466
     42 O          24.7992   69.9154    1.8290 O.co2   1  UNL1       -0.5466
     43 C          24.6778   71.1231    1.6890 C.2     1  UNL1        0.0799
@<TRIPOS>UNITY_ATOM_ATTR
2 1
charge -1
26 1
charge -1
41 1
charge -1
@<TRIPOS>BOND
     1     1     4    1
     2     1    24    1
     3     1     2    1
     4     1     3    2
     5    25    28    1
     6    25    24    1
     7    25    26    1
     8    25    27    2
     9     6    11    1
    10     6    12    1
    11    29    36    1
    12    29    37    1
    13     7     9    1
    14     7    13    1
    15     8    10    1
    16     8    14    1
    17     4     5    1
    18    28    36    1
    19    30    33    1
    20    30    38    1
    21    31    34    1
    22    31    39    1
    23    32    35    1
    24    32    40    1
    25    41    43   ar
    26    15    19    2
    27    42    43   ar
    28    16    22    2
    29    17    12    1
    30    17    19   ar
    31    17    20   ar
    32    18    19   ar
    33    18    22   ar
    34    18    23    1
    35     9    10    1
    36     9    11    1
    37    10    12    1
    38    11     5    1
    39    33    34    1
    40    33    35    1
    41    34    36    1
    42    35    37    1
    43    37    43    1
    44    20    21   ar
    45    21    22   ar
@<TRIPOS>MOLECULE
*****
 43 45 0 0 0
SMALL
GASTEIGER

@<TRIPOS>ATOM
      1 P          21.3355   72.6094   -4.6023 P.3     1  UNL1        0.2189
      2 O          21.4128   74.1922   -4.2741 O.co2   1  UNL1       -0.4371
      3 O          22.0924   72.1780   -5.8241 O.2     1  UNL1       -0.5170
      4 O          19.7491   72.2912   -4.6099 O.3     1  UNL1       -0.3112
      5 C          19.2337   71.3993   -3.6385 C.3     1  UNL1        0.1811
      6 O          17.3668   71.7397   -5.1138 O.3     1  UNL1       -0.3308
      7 O          15.7799   70.0782   -3.1870 O.3     1  UNL1       -0.3794
      8 O          16.3368   68.3063   -5.1836 O.3     1  UNL1       -0.3779
      9 C          17.1458   69.9469   -3.5816 C.3     1  UNL1        0.1713
     10 C          17.2344   69.3778   -4.9818 C.3     1  UNL1        0.1895
     11 C          17.7170   71.3457   -3.7694 C.3     1  UNL1        0.1764
     12 C          16.9008   70.5889   -5.8361 C.3     1  UNL1        0.2383
     13 H          15.3933   69.1971   -3.0609 H       1  UNL1        0.2105
     14 H          16.5918   67.5601   -4.6178 H       1  UNL1        0.2106
     15 O          15.5427   70.7185   -8.3091 O.2     1  UNL1       -0.2464
     16 O          19.4772   70.4295  -10.6925 O.2     1  UNL1       -0.2670
     17 N          17.5456   70.5496   -7.1181 N.ar    1  UNL1       -0.2551
     18 N          17.5035   70.5734   -9.4938 N.ar    1  UNL1       -0.2743
     19 C          16.7713   70.6213   -8.3002 C.ar    1  UNL1        0.3323
     20 C          18.9289   70.4431   -7.1957 C.ar    1  UNL1        0.0869
     21 C          19.6128   70.3987   -8.3407 C.ar    1  UNL1        0.0795
     22 C          18.8790   70.4672   -9.6215 C.ar    1  UNL1        0.2626
     23 H          16.9860   70.6196  -10.3301 H       1  UNL1        0.1734
     24 O          21.8362   71.9282   -3.2246 O.3     1  UNL1       -0.2703
     25 P          23.2970   71.8804   -2.5338 P.3     1  UNL1        0.2208
     26 O          23.8714   73.3738   -2.7795 O.co2   1  UNL1       -0.4371
     27 O          24.1852   70.7841   -3.0468 O.2     1  UNL1       -0.5170
     28 O          22.9988   71.8144   -0.9498 O.3     1  UNL1       -0.2858
     29 O          22.6785   73.8129    0.2801 O.3     1  UNL1       -0.3226
     30 O          23.4698   71.0928    3.2873 O.3     1  UNL1       -0.3794
     31 O          25.0144   71.0504    0.8080 O.3     1  UNL1       -0.3775
     32 O          20.7494   72.0080    2.8263 O.3     1  UNL1       -0.3792
     33 C          22.9700   71.5293    2.0233 C.3     1  UNL1        0.1718
     34 C          24.1188   72.0899    1.1846 C.3     1  UNL1        0.1968
     35 C          21.9195   72.6124    2.2787 C.3     1  UNL1        0.1723
     36 C          23.5916   72.7746   -0.0772 C.3     1  UNL1        0.2706
     37 C          21.5380   73.3336    0.9891 C.3     1  UNL1        0.1830
     38 H          24.1393   70.4041    3.1501 H       1  UNL1        0.2105
     39 H          25.3526   70.6114    1.6038 H       1  UNL1        0.2106
     40 H          20.9785   71.5454    3.6475 H       1  UNL1        0.2106
     41 O          19.5354   74.2923    1.7453 O.co2   1  UNL1       -0.5466
     42 O          21.2082   75.7189    1.1405 O.co2   1  UNL1       -0.5466
     43 C          20.7774   74.5848    1.2861 C.2     1  UNL1        0.0799
@<TRIPOS>UNITY_ATOM_ATTR
2 1
charge -1
26 1
charge -1
41 1
charge -1
@<TRIPOS>BOND
     1     1     4    1
     2     1    24    1
     3     1     2    1
     4     1     3    2
     5    25    28    1
     6    25    24    1
     7    25    26    1
     8    25    27    2
     9     6    11    1
    10     6    12    1
    11    29    36    1
    12    29    37    1
    13     7     9    1
    14     7    13    1
    15     8    10    1
    16     8    14    1
    17     4     5    1
    18    28    36    1
    19    30    33    1
    20    30    38    1
    21    31    34    1
    22    31    39    1
    23    32    35    1
    24    32    40    1
    25    41    43   ar
    26    15    19    2
    27    42    43   ar
    28    16    22    2
    29    17    12    1
    30    17    19   ar
    31    17    20   ar
    32    18    19   ar
    33    18    22   ar
    34    18    23    1
    35     9    10    1
    36     9    11    1
    37    10    12    1
    38    11     5    1
    39    33    34    1
    40    33    35    1
    41    34    36    1
    42    35    37    1
    43    37    43    1
    44    20    21   ar
    45    21    22   ar
@<TRIPOS>MOLECULE
*****
 43 45 0 0 0
SMALL
GASTEIGER

@<TRIPOS>ATOM
      1 P          19.2113   73.6998   -1.6023 P.3     1  UNL1        0.2189
      2 O          17.7232   74.3054   -1.4081 O.co2   1  UNL1       -0.4371
      3 O          20.2630   74.7070   -1.9643 O.2     1  UNL1       -0.5170
      4 O          19.0040   72.4904   -2.6570 O.3     1  UNL1       -0.3112
      5 C          18.4365   72.7848   -3.9202 C.3     1  UNL1        0.1811
      6 O          16.6758   72.0805   -5.3973 O.3     1  UNL1       -0.3308
      7 O          15.6858   70.4045   -3.1164 O.3     1  UNL1       -0.3794
      8 O          16.9832   68.5820   -4.6758 O.3     1  UNL1       -0.3779
      9 C          17.0275   70.7090   -3.4983 C.3     1  UNL1        0.1713
     10 C          17.4101   69.9269   -4.7369 C.3     1  UNL1        0.1895
     11 C          17.0571   72.1441   -4.0059 C.3     1  UNL1        0.1764
     12 C          16.7125   70.7126   -5.8341 C.3     1  UNL1        0.2383
     13 H          15.6418   69.4922   -2.7885 H       1  UNL1        0.2105
     14 H          17.4563   68.1247   -3.9624 H       1  UNL1        0.2106
     15 O          15.4497   70.6303   -8.3590 O.2     1  UNL1       -0.2464
     16 O          19.4865   70.4391  -10.5752 O.2     1  UNL1       -0.2670
     17 N          17.4095   70.6412   -7.0871 N.ar    1  UNL1       -0.2551
     18 N          17.4615   70.5341   -9.4603 N.ar    1  UNL1       -0.2743
     19 C          16.6804   70.6043   -8.2992 C.ar    1  UNL1        0.3323
     20 C          18.7986   70.6101   -7.1073 C.ar    1  UNL1        0.0869
     21 C          19.5292   70.5432   -8.2220 C.ar    1  UNL1        0.0795
     22 C          18.8447   70.5002   -9.5308 C.ar    1  UNL1        0.2626
     23 H          16.9761   70.5053  -10.3165 H       1  UNL1        0.1734
     24 O          19.4725   72.9250   -0.2079 O.3     1  UNL1       -0.2703
     25 P          20.8174   72.2725    0.4081 P.3     1  UNL1        0.2208
     26 O          21.1280   71.0448   -0.6002 O.co2   1  UNL1       -0.4371
     27 O          20.7034   71.8740    1.8510 O.2     1  UNL1       -0.5170
     28 O          21.9745   73.3539    0.1015 O.3     1  UNL1       -0.2858
     29 O          23.5791   72.5131   -1.4241 O.3     1  UNL1       -0.3226
     30 O          25.2527   76.1360   -0.3557 O.3     1  UNL1       -0.3794
     31 O          24.0127   74.4251    1.6617 O.3     1  UNL1       -0.3775
     32 O          23.9625   75.8310   -2.9428 O.3     1  UNL1       -0.3792
     33 C          24.1918   75.2191   -0.6238 C.3     1  UNL1        0.1718
     34 C          24.2951   74.0252    0.3257 C.3     1  UNL1        0.1968
     35 C          24.3225   74.7564   -2.0767 C.3     1  UNL1        0.1723
     36 C          23.3207   72.9182   -0.0793 C.3     1  UNL1        0.2706
     37 C          23.4096   73.5688   -2.3674 C.3     1  UNL1        0.1830
     38 H          25.1901   76.4436    0.5624 H       1  UNL1        0.2105
     39 H          24.6271   75.1276    1.9252 H       1  UNL1        0.2106
     40 H          24.5361   76.5934   -2.7679 H       1  UNL1        0.2106
     41 O          23.6216   73.7921   -4.6927 O.co2   1  UNL1       -0.5466
     42 O          24.1655   71.7710   -3.7880 O.co2   1  UNL1       -0.5466
     43 C          23.7764   72.9226   -3.6636 C.2     1  UNL1        0.0799
@<TRIPOS>UNITY_ATOM_ATTR
2 1
charge -1
26 1
charge -1
41 1
charge -1
@<TRIPOS>BOND
     1     1     4    1
     2     1    24    1
     3     1     2    1
     4     1     3    2
     5    25    28    1
     6    25    24    1
     7    25    26    1
     8    25    27    2
     9     6    11    1
    10     6    12    1
    11    29    36    1
    12    29    37    1
    13     7     9    1
    14     7    13    1
    15     8    10    1
    16     8    14    1
    17     4     5    1
    18    28    36    1
    19    30    33    1
    20    30    38    1
    21    31    34    1
    22    31    39    1
    23    32    35    1
    24    32    40    1
    25    41    43   ar
    26    15    19    2
    27    42    43   ar
    28    16    22    2
    29    17    12    1
    30    17    19   ar
    31    17    20   ar
    32    18    19   ar
    33    18    22   ar
    34    18    23    1
    35     9    10    1
    36     9    11    1
    37    10    12    1
    38    11     5    1
    39    33    34    1
    40    33    35    1
    41    34    36    1
    42    35    37    1
    43    37    43    1
    44    20    21   ar
    45    21    22   ar
@<TRIPOS>MOLECULE
*****
 43 45 0 0 0
SMALL
GASTEIGER

@<TRIPOS>ATOM
      1 P          20.2409   72.2602   -1.1132 P.3     1  UNL1        0.2189
      2 O          19.9823   70.6630   -1.1454 O.co2   1  UNL1       -0.4371
      3 O          19.0181   73.0952   -0.8697 O.2     1  UNL1       -0.5170
      4 O          21.0285   72.5541   -2.4957 O.3     1  UNL1       -0.3112
      5 C          20.3696   72.2852   -3.7196 C.3     1  UNL1        0.1811
      6 O          20.6866   70.7186   -5.5149 O.3     1  UNL1       -0.3308
      7 O          23.1904   72.2404   -6.1525 O.3     1  UNL1       -0.3794
      8 O          21.4310   73.1823   -8.0108 O.3     1  UNL1       -0.3779
      9 C          21.9348   72.7253   -5.6764 C.3     1  UNL1        0.1713
     10 C          20.9084   72.7036   -6.7893 C.3     1  UNL1        0.1895
     11 C          21.3723   71.6974   -4.7042 C.3     1  UNL1        0.1764
     12 C          20.5385   71.2313   -6.8485 C.3     1  UNL1        0.2383
     13 H          23.5694   72.8805   -6.7756 H       1  UNL1        0.2105
     14 H          21.6507   74.1235   -7.9218 H       1  UNL1        0.2106
     15 O          19.7528   70.9469   -9.5463 O.2     1  UNL1       -0.2464
     16 O          15.3198   70.4371   -8.3919 O.2     1  UNL1       -0.2670
     17 N          19.1856   71.0232   -7.2811 N.ar    1  UNL1       -0.2551
     18 N          17.5456   70.6943   -8.9689 N.ar    1  UNL1       -0.2743
     19 C          18.8978   70.8931   -8.6604 C.ar    1  UNL1        0.3323
     20 C          18.1617   70.9483   -6.3447 C.ar    1  UNL1        0.0869
     21 C          16.8775   70.7584   -6.6540 C.ar    1  UNL1        0.0795
     22 C          16.4918   70.6134   -8.0730 C.ar    1  UNL1        0.2626
     23 H          17.3203   70.6029   -9.9229 H       1  UNL1        0.1734
     24 O          21.3977   72.4181    0.0047 O.3     1  UNL1       -0.2703
     25 P          21.5383   71.7811    1.4839 P.3     1  UNL1        0.2208
     26 O          21.6410   70.1919    1.1941 O.co2   1  UNL1       -0.4371
     27 O          20.4368   72.1676    2.4280 O.2     1  UNL1       -0.5170
     28 O          23.0170   72.2024    1.9721 O.3     1  UNL1       -0.2858
     29 O          24.5570   73.6792    0.9442 O.3     1  UNL1       -0.3226
     30 O          27.0834   71.0066    2.8263 O.3     1  UNL1       -0.3794
     31 O          24.7018   70.0579    1.4255 O.3     1  UNL1       -0.3775
     32 O          26.6708   73.6587    3.9432 O.3     1  UNL1       -0.3792
     33 C          25.8930   71.7761    2.6564 C.3     1  UNL1        0.1718
     34 C          25.2128   71.3834    1.3446 C.3     1  UNL1        0.1968
     35 C          26.2855   73.2550    2.6305 C.3     1  UNL1        0.1723
     36 C          24.0660   72.3401    1.0153 C.3     1  UNL1        0.2706
     37 C          25.1239   74.1317    2.1718 C.3     1  UNL1        0.1830
     38 H          26.8587   70.0630    2.8457 H       1  UNL1        0.2105
     39 H          25.4241   69.4456    1.6345 H       1  UNL1        0.2106
     40 H          27.4095   73.1082    4.2470 H       1  UNL1        0.2106
     41 O          24.7919   76.0785    0.9064 O.co2   1  UNL1       -0.5466
     42 O          26.5762   76.0522    2.3258 O.co2   1  UNL1       -0.5466
     43 C          25.5986   75.5078    1.8351 C.2     1  UNL1        0.0799
@<TRIPOS>UNITY_ATOM_ATTR
2 1
charge -1
26 1
charge -1
41 1
charge -1
@<TRIPOS>BOND
     1     1     4    1
     2     1    24    1
     3     1     2    1
     4     1     3    2
     5    25    28    1
     6    25    24    1
     7    25    26    1
     8    25    27    2
     9     6    11    1
    10     6    12    1
    11    29    36    1
    12    29    37    1
    13     7     9    1
    14     7    13    1
    15     8    10    1
    16     8    14    1
    17     4     5    1
    18    28    36    1
    19    30    33    1
    20    30    38    1
    21    31    34    1
    22    31    39    1
    23    32    35    1
    24    32    40    1
    25    41    43   ar
    26    15    19    2
    27    42    43   ar
    28    16    22    2
    29    17    12    1
    30    17    19   ar
    31    17    20   ar
    32    18    19   ar
    33    18    22   ar
    34    18    23    1
    35     9    10    1
    36     9    11    1
    37    10    12    1
    38    11     5    1
    39    33    34    1
    40    33    35    1
    41    34    36    1
    42    35    37    1
    43    37    43    1
    44    20    21   ar
    45    21    22   ar
@<TRIPOS>MOLECULE
*****
 43 45 0 0 0
SMALL
GASTEIGER

@<TRIPOS>ATOM
      1 P          23.6859   73.3045   -3.9488 P.3     1  UNL1        0.2189
      2 O          24.7607   74.4328   -4.3854 O.co2   1  UNL1       -0.4371
      3 O          24.2756   71.9705   -3.5960 O.2     1  UNL1       -0.5170
      4 O          22.6132   73.3003   -5.1600 O.3     1  UNL1       -0.3112
      5 C          21.4487   72.5057   -5.0292 C.3     1  UNL1        0.1811
      6 O          20.5009   70.5117   -5.9797 O.3     1  UNL1       -0.3308
      7 O          20.7531   71.8812   -8.6354 O.3     1  UNL1       -0.3794
      8 O          18.1100   72.2039   -8.0472 O.3     1  UNL1       -0.3779
      9 C          20.4308   72.4356   -7.3598 C.3     1  UNL1        0.1713
     10 C          19.0145   72.0677   -6.9711 C.3     1  UNL1        0.1895
     11 C          21.2508   71.7014   -6.3077 C.3     1  UNL1        0.1764
     12 C          19.1754   70.6256   -6.5213 C.3     1  UNL1        0.2383
     13 H          20.2413   72.3344   -9.3240 H       1  UNL1        0.2105
     14 H          18.0423   73.1395   -8.2962 H       1  UNL1        0.2106
     15 O          16.5487   69.7334   -7.0513 O.2     1  UNL1       -0.2464
     16 O          15.6150   69.2411   -2.5647 O.2     1  UNL1       -0.2670
     17 N          18.2248   70.2576   -5.5104 N.ar    1  UNL1       -0.2551
     18 N          16.0858   69.4900   -4.8162 N.ar    1  UNL1       -0.2743
     19 C          16.9310   69.8225   -5.8831 C.ar    1  UNL1        0.3323
     20 C          18.5775   70.3278   -4.1682 C.ar    1  UNL1        0.0869
     21 C          17.7611   70.0074   -3.1624 C.ar    1  UNL1        0.0795
     22 C          16.3911   69.5442   -3.4658 C.ar    1  UNL1        0.2626
     23 H          15.1792   69.1863   -5.0507 H       1  UNL1        0.1734
     24 O          22.8752   74.0211   -2.7479 O.3     1  UNL1       -0.2703
     25 P          23.3975   74.8339   -1.4516 P.3     1  UNL1        0.2208
     26 O          22.5008   76.1814   -1.4741 O.co2   1  UNL1       -0.4371
     27 O          24.8788   75.0770   -1.4329 O.2     1  UNL1       -0.5170
     28 O          22.8407   73.9953   -0.1910 O.3     1  UNL1       -0.2858
     29 O          23.8422   73.4320    1.8799 O.3     1  UNL1       -0.3226
     30 O          21.5257   70.0942    1.1310 O.3     1  UNL1       -0.3794
     31 O          23.0543   71.3487   -1.0193 O.3     1  UNL1       -0.3775
     32 O          20.6723   72.0496    3.1057 O.3     1  UNL1       -0.3792
     33 C          21.8655   71.4802    1.0915 C.3     1  UNL1        0.1718
     34 C          23.1970   71.6600    0.3618 C.3     1  UNL1        0.1968
     35 C          21.9769   71.9811    2.5333 C.3     1  UNL1        0.1723
     36 C          23.7064   73.0955    0.4987 C.3     1  UNL1        0.2706
     37 C          22.6095   73.3684    2.5937 C.3     1  UNL1        0.1830
     38 H          21.4495   69.7539    0.2257 H       1  UNL1        0.2105
     39 H          22.7311   70.4393   -1.1136 H       1  UNL1        0.2106
     40 H          20.2585   71.1729    3.0733 H       1  UNL1        0.2106
     41 O          21.9234   73.8273    4.7892 O.co2   1  UNL1       -0.5466
     42 O          24.1651   73.8538    4.3731 O.co2   1  UNL1       -0.5466
     43 C          23.0136   73.7067    3.9918 C.2     1  UNL1        0.0799
@<TRIPOS>UNITY_ATOM_ATTR
2 1
charge -1
26 1
charge -1
41 1
charge -1
@<TRIPOS>BOND
     1     1     4    1
     2     1    24    1
     3     1     2    1
     4     1     3    2
     5    25    28    1
     6    25    24    1
     7    25    26    1
     8    25    27    2
     9     6    11    1
    10     6    12    1
    11    29    36    1
    12    29    37    1
    13     7     9    1
    14     7    13    1
    15     8    10    1
    16     8    14    1
    17     4     5    1
    18    28    36    1
    19    30    33    1
    20    30    38    1
    21    31    34    1
    22    31    39    1
    23    32    35    1
    24    32    40    1
    25    41    43   ar
    26    15    19    2
    27    42    43   ar
    28    16    22    2
    29    17    12    1
    30    17    19   ar
    31    17    20   ar
    32    18    19   ar
    33    18    22   ar
    34    18    23    1
    35     9    10    1
    36     9    11    1
    37    10    12    1
    38    11     5    1
    39    33    34    1
    40    33    35    1
    41    34    36    1
    42    35    37    1
    43    37    43    1
    44    20    21   ar
    45    21    22   ar
