@<TRIPOS>MOLECULE
UDP-glaA
 43 45 0 0 0
SMALL
GASTEIGER

@<TRIPOS>ATOM
      1 P          22.6392   72.8902   -4.0107 P.3     1  UNL1        0.2189
      2 O          23.0660   73.2584   -5.5271 O.3     1  UNL1       -0.4371
      3 O          23.3932   71.7447   -3.4013 O.2     1  UNL1       -0.5170
      4 O          21.0337   72.7121   -4.0900 O.3     1  UNL1       -0.3112
      5 C          20.4449   71.5876   -3.4592 C.3     1  UNL1        0.1811
      6 O          18.4615   72.2753   -4.6286 O.3     1  UNL1       -0.3308
      7 O          16.9261   70.9084   -2.4457 O.3     1  UNL1       -0.3794
      8 O          16.8324   69.0852   -4.4712 O.3     1  UNL1       -0.3779
      9 C          18.1659   70.5361   -3.0474 C.3     1  UNL1        0.1713
     10 C          17.9292   69.9746   -4.4335 C.3     1  UNL1        0.1895
     11 C          18.9433   71.8107   -3.3483 C.3     1  UNL1        0.1764
     12 C          17.6877   71.2344   -5.2475 C.3     1  UNL1        0.2383
     13 H          17.1303   71.2976   -1.5783 H       1  UNL1        0.2105
     14 H          17.0176   68.3653   -3.8439 H       1  UNL1        0.2106
     15 O          16.0301   70.2908   -7.3302 O.2     1  UNL1       -0.2464
     16 O          19.3921   70.7296  -10.4516 O.2     1  UNL1       -0.2670
     17 N          18.1036   71.0925   -6.6136 N.ar    1  UNL1       -0.2551
     18 N          17.7055   70.5094   -8.8831 N.ar    1  UNL1       -0.2743
     19 C          17.1938   70.6086   -7.5825 C.ar    1  UNL1        0.3323
     20 C          19.4009   71.4311   -6.9820 C.ar    1  UNL1        0.0869
     21 C          19.8736   71.3314   -8.2263 C.ar    1  UNL1        0.0795
     22 C          18.9880   70.8336   -9.2976 C.ar    1  UNL1        0.2626
     23 H          17.0693   70.1632   -9.5961 H       1  UNL1        0.1734
     24 O          22.8104   74.2983   -3.2340 O.3     1  UNL1       -0.2703
     25 P          23.9055   74.7845   -2.1492 P.3     1  UNL1        0.2208
     26 O          23.3956   76.2654   -1.7453 O.3     1  UNL1       -0.4371
     27 O          25.3243   74.7295   -2.6390 O.2     1  UNL1       -0.5170
     28 O          23.6158   73.8824   -0.8430 O.3     1  UNL1       -0.2858
     29 O          21.8371   72.3665   -0.4719 O.3     1  UNL1       -0.3226
     30 O          22.6711   73.6904    3.3792 O.3     1  UNL1       -0.3794
     31 O          22.6710   75.5570    1.1383 O.3     1  UNL1       -0.3775
     32 O          21.0903   71.7397    2.2277 O.3     1  UNL1       -0.3792
     33 C          22.9159   73.3089    2.0284 C.3     1  UNL1        0.1718
     34 C          22.1584   74.2308    1.0669 C.3     1  UNL1        0.1968
     35 C          22.4608   71.8600    1.8328 C.3     1  UNL1        0.1723
     36 C          22.2765   73.7255   -0.3764 C.3     1  UNL1        0.2706
     37 C          22.5829   71.4783    0.3591 C.3     1  UNL1        0.1830
     38 H          23.1670   73.0800    3.9510 H       1  UNL1        0.2105
     39 H          22.1687   76.1001    0.5077 H       1  UNL1        0.2106
     40 H          20.5350   72.1565    1.5473 H       1  UNL1        0.2106
     41 O          22.9292   69.1592    0.4324 O.co2   1  UNL1       -0.5466
     42 O          20.9136   69.8837   -0.3483 O.co2   1  UNL1       -0.5466
     43 C          22.0276   70.1141    0.0994 C.2     1  UNL1        0.0799
@<TRIPOS>UNITY_ATOM_ATTR
41 1
charge -1
@<TRIPOS>BOND
     1     1     4    1
     2     1    24    1
     3     1     2    1
     4     1     3    2
     5    25    28    1
     6    25    24    1
     7    25    26    1
     8    25    27    2
     9     6    11    1
    10     6    12    1
    11    29    36    1
    12    29    37    1
    13     7     9    1
    14     7    13    1
    15     8    10    1
    16     8    14    1
    17     4     5    1
    18    28    36    1
    19    30    33    1
    20    30    38    1
    21    31    34    1
    22    31    39    1
    23    32    35    1
    24    32    40    1
    25    41    43   ar
    26    15    19    2
    27    42    43   ar
    28    16    22    2
    29    17    12    1
    30    17    19   ar
    31    17    20   ar
    32    18    19   ar
    33    18    22   ar
    34    18    23    1
    35     9    10    1
    36     9    11    1
    37    10    12    1
    38    11     5    1
    39    33    34    1
    40    33    35    1
    41    34    36    1
    42    35    37    1
    43    37    43    1
    44    20    21   ar
    45    21    22   ar
@<TRIPOS>MOLECULE
UDP-glaA
 43 45 0 0 0
SMALL
GASTEIGER

@<TRIPOS>ATOM
      1 P          21.9077   73.6021   -6.0364 P.3     1  UNL1        0.2189
      2 O          22.2717   75.1691   -5.8648 O.3     1  UNL1       -0.4371
      3 O          22.8080   72.8411   -6.9650 O.2     1  UNL1       -0.5170
      4 O          20.3381   73.6071   -6.4263 O.3     1  UNL1       -0.3112
      5 C          19.9221   74.3615   -7.5519 C.3     1  UNL1        0.1811
      6 O          19.6201   72.0569   -8.1616 O.3     1  UNL1       -0.3308
      7 O          17.9107   73.0693  -10.4075 O.3     1  UNL1       -0.3794
      8 O          16.0639   72.2611   -8.5713 O.3     1  UNL1       -0.3779
      9 C          18.0472   73.5726   -9.0787 C.3     1  UNL1        0.1713
     10 C          17.3315   72.6675   -8.0983 C.3     1  UNL1        0.1895
     11 C          19.5025   73.4074   -8.6610 C.3     1  UNL1        0.1764
     12 C          18.3056   71.5089   -7.9692 C.3     1  UNL1        0.2383
     13 H          18.4163   73.6579  -10.9937 H       1  UNL1        0.2105
     14 H          15.5398   73.0647   -8.7313 H       1  UNL1        0.2106
     15 O          16.0866   70.0515   -7.0061 O.2     1  UNL1       -0.2464
     16 O          18.1837   69.1512   -3.0024 O.2     1  UNL1       -0.2670
     17 N          18.2448   70.8826   -6.6794 N.ar    1  UNL1       -0.2551
     18 N          17.1322   69.6046   -5.0129 N.ar    1  UNL1       -0.2743
     19 C          17.0831   70.1748   -6.2917 C.ar    1  UNL1        0.3323
     20 C          19.3286   70.9733   -5.8130 C.ar    1  UNL1        0.0869
     21 C          19.3601   70.4237   -4.5970 C.ar    1  UNL1        0.0795
     22 C          18.1868   69.6681   -4.1154 C.ar    1  UNL1        0.2626
     23 H          16.3077   69.0914   -4.7127 H       1  UNL1        0.1734
     24 O          21.9014   73.0626   -4.5119 O.3     1  UNL1       -0.2703
     25 P          23.1167   72.7436   -3.4951 P.3     1  UNL1        0.2208
     26 O          24.3279   73.6491   -4.0687 O.3     1  UNL1       -0.4371
     27 O          23.4427   71.2833   -3.3637 O.2     1  UNL1       -0.5170
     28 O          22.6915   73.4587   -2.1124 O.3     1  UNL1       -0.2858
     29 O          21.5827   71.7191   -0.9532 O.3     1  UNL1       -0.3226
     30 O          21.7916   74.6979    1.9387 O.3     1  UNL1       -0.3794
     31 O          21.1573   75.3621   -0.8294 O.3     1  UNL1       -0.3775
     32 O          21.0588   72.0360    1.8510 O.3     1  UNL1       -0.3792
     33 C          22.1881   73.9069    0.8218 C.3     1  UNL1        0.1718
     34 C          21.1668   74.0352   -0.3135 C.3     1  UNL1        0.1968
     35 C          22.2986   72.4453    1.2643 C.3     1  UNL1        0.1723
     36 C          21.4926   73.0584   -1.4502 C.3     1  UNL1        0.2706
     37 C          22.5835   71.5620    0.0515 C.3     1  UNL1        0.1830
     38 H          22.4639   74.5844    2.6320 H       1  UNL1        0.2105
     39 H          20.5050   75.3923   -1.5494 H       1  UNL1        0.2106
     40 H          20.4043   71.9209    1.1414 H       1  UNL1        0.2106
     41 O          21.3093   69.6197    0.3793 O.co2   1  UNL1       -0.5466
     42 O          23.5594   69.4525    0.7051 O.co2   1  UNL1       -0.5466
     43 C          22.5712   70.1115    0.4160 C.2     1  UNL1        0.0799
@<TRIPOS>UNITY_ATOM_ATTR
41 1
charge -1
@<TRIPOS>BOND
     1     1     4    1
     2     1    24    1
     3     1     2    1
     4     1     3    2
     5    25    28    1
     6    25    24    1
     7    25    26    1
     8    25    27    2
     9     6    11    1
    10     6    12    1
    11    29    36    1
    12    29    37    1
    13     7     9    1
    14     7    13    1
    15     8    10    1
    16     8    14    1
    17     4     5    1
    18    28    36    1
    19    30    33    1
    20    30    38    1
    21    31    34    1
    22    31    39    1
    23    32    35    1
    24    32    40    1
    25    41    43   ar
    26    15    19    2
    27    42    43   ar
    28    16    22    2
    29    17    12    1
    30    17    19   ar
    31    17    20   ar
    32    18    19   ar
    33    18    22   ar
    34    18    23    1
    35     9    10    1
    36     9    11    1
    37    10    12    1
    38    11     5    1
    39    33    34    1
    40    33    35    1
    41    34    36    1
    42    35    37    1
    43    37    43    1
    44    20    21   ar
    45    21    22   ar
@<TRIPOS>MOLECULE
UDP-glaA
 43 45 0 0 0
SMALL
GASTEIGER

@<TRIPOS>ATOM
      1 P          22.8800   71.6032   -2.3868 P.3     1  UNL1        0.2189
      2 O          23.4581   73.0656   -2.7671 O.3     1  UNL1       -0.4371
      3 O          23.4263   70.4732   -3.2094 O.2     1  UNL1       -0.5170
      4 O          21.2748   71.7945   -2.4334 O.3     1  UNL1       -0.3112
      5 C          20.5477   71.1672   -3.4760 C.3     1  UNL1        0.1811
      6 O          18.6486   72.0858   -4.6267 O.3     1  UNL1       -0.3308
      7 O          16.9776   70.8542   -2.4629 O.3     1  UNL1       -0.3794
      8 O          16.6846   69.0880   -4.5197 O.3     1  UNL1       -0.3779
      9 C          18.1690   70.3609   -3.0751 C.3     1  UNL1        0.1713
     10 C          17.8711   69.8529   -4.4700 C.3     1  UNL1        0.1895
     11 C          19.0793   71.5492   -3.3563 C.3     1  UNL1        0.1764
     12 C          17.7660   71.1457   -5.2611 C.3     1  UNL1        0.2383
     13 H          17.2239   71.2036   -1.5895 H       1  UNL1        0.2105
     14 H          16.7919   68.3412   -3.9056 H       1  UNL1        0.2106
     15 O          16.0185   70.3986   -7.3500 O.2     1  UNL1       -0.2464
     16 O          19.3983   70.5534  -10.4791 O.2     1  UNL1       -0.2670
     17 N          18.1622   70.9840   -6.6308 N.ar    1  UNL1       -0.2551
     18 N          17.7028   70.4757   -8.9067 N.ar    1  UNL1       -0.2743
     19 C          17.2068   70.6051   -7.6027 C.ar    1  UNL1        0.3323
     20 C          19.4853   71.2000   -6.9998 C.ar    1  UNL1        0.0869
     21 C          19.9425   71.0729   -8.2475 C.ar    1  UNL1        0.0795
     22 C          19.0096   70.6795   -9.3219 C.ar    1  UNL1        0.2626
     23 H          17.0338   70.2035   -9.6219 H       1  UNL1        0.1734
     24 O          23.1868   71.4929   -0.8029 O.3     1  UNL1       -0.2703
     25 P          22.3714   70.7631    0.3867 P.3     1  UNL1        0.2208
     26 O          23.4044   69.6312    0.9045 O.3     1  UNL1       -0.4371
     27 O          21.0265   70.2345   -0.0225 O.2     1  UNL1       -0.5170
     28 O          22.3260   71.8503    1.5782 O.3     1  UNL1       -0.2858
     29 O          20.8470   72.7257    3.2048 O.3     1  UNL1       -0.3226
     30 O          22.2510   76.1750    1.3580 O.3     1  UNL1       -0.3794
     31 O          21.5924   73.8125   -0.2202 O.3     1  UNL1       -0.3775
     32 O          20.7201   75.5691    3.5759 O.3     1  UNL1       -0.3792
     33 C          22.2719   74.8461    1.8717 C.3     1  UNL1        0.1718
     34 C          21.2374   73.9772    1.1486 C.3     1  UNL1        0.1968
     35 C          21.9633   74.8899    3.3708 C.3     1  UNL1        0.1723
     36 C          21.1315   72.5964    1.8079 C.3     1  UNL1        0.2706
     37 C          21.8407   73.4668    3.9113 C.3     1  UNL1        0.1830
     38 H          22.9178   76.6884    1.8451 H       1  UNL1        0.2105
     39 H          20.9159   73.2497   -0.6331 H       1  UNL1        0.2106
     40 H          19.9974   74.9809    3.2988 H       1  UNL1        0.2106
     41 O          22.4803   73.3041    6.1625 O.co2   1  UNL1       -0.5466
     42 O          20.2591   73.5829    5.7319 O.co2   1  UNL1       -0.5466
     43 C          21.4119   73.4607    5.3441 C.2     1  UNL1        0.0799
@<TRIPOS>UNITY_ATOM_ATTR
41 1
charge -1
@<TRIPOS>BOND
     1     1     4    1
     2     1    24    1
     3     1     2    1
     4     1     3    2
     5    25    28    1
     6    25    24    1
     7    25    26    1
     8    25    27    2
     9     6    11    1
    10     6    12    1
    11    29    36    1
    12    29    37    1
    13     7     9    1
    14     7    13    1
    15     8    10    1
    16     8    14    1
    17     4     5    1
    18    28    36    1
    19    30    33    1
    20    30    38    1
    21    31    34    1
    22    31    39    1
    23    32    35    1
    24    32    40    1
    25    41    43   ar
    26    15    19    2
    27    42    43   ar
    28    16    22    2
    29    17    12    1
    30    17    19   ar
    31    17    20   ar
    32    18    19   ar
    33    18    22   ar
    34    18    23    1
    35     9    10    1
    36     9    11    1
    37    10    12    1
    38    11     5    1
    39    33    34    1
    40    33    35    1
    41    34    36    1
    42    35    37    1
    43    37    43    1
    44    20    21   ar
    45    21    22   ar
@<TRIPOS>MOLECULE
UDP-glaA
 43 45 0 0 0
SMALL
GASTEIGER

@<TRIPOS>ATOM
      1 P          22.3919   73.3720   -5.2868 P.3     1  UNL1        0.2189
      2 O          22.8633   74.8171   -5.8408 O.3     1  UNL1       -0.4371
      3 O          23.4555   72.5901   -4.5731 O.2     1  UNL1       -0.5170
      4 O          21.7393   72.6529   -6.5801 O.3     1  UNL1       -0.3112
      5 C          20.8642   73.4047   -7.4037 C.3     1  UNL1        0.1811
      6 O          20.0654   71.1743   -7.8059 O.3     1  UNL1       -0.3308
      7 O          18.5304   72.3391  -10.1034 O.3     1  UNL1       -0.3794
      8 O          16.6191   72.0926   -8.1743 O.3     1  UNL1       -0.3779
      9 C          18.8146   72.9087   -8.8257 C.3     1  UNL1        0.1713
     10 C          17.9590   72.2586   -7.7590 C.3     1  UNL1        0.1895
     11 C          20.2163   72.4738   -8.4188 C.3     1  UNL1        0.1764
     12 C          18.6726   70.9345   -7.5454 C.3     1  UNL1        0.2383
     13 H          19.1278   72.7575  -10.7466 H       1  UNL1        0.2105
     14 H          16.2698   72.9732   -8.3951 H       1  UNL1        0.2106
     15 O          16.3383   69.6984   -6.5459 O.2     1  UNL1       -0.2464
     16 O          18.2230   69.0879   -2.3849 O.2     1  UNL1       -0.2670
     17 N          18.5259   70.4427   -6.2053 N.ar    1  UNL1       -0.2551
     18 N          17.2782   69.3957   -4.4744 N.ar    1  UNL1       -0.2743
     19 C          17.3116   69.8389   -5.8032 C.ar    1  UNL1        0.3323
     20 C          19.5785   70.5610   -5.3044 C.ar    1  UNL1        0.0869
     21 C          19.5312   70.1330   -4.0409 C.ar    1  UNL1        0.0795
     22 C          18.2989   69.4916   -3.5413 C.ar    1  UNL1        0.2626
     23 H          16.4148   68.9589   -4.1632 H       1  UNL1        0.1734
     24 O          21.1009   73.7341   -4.3826 O.3     1  UNL1       -0.2703
     25 P          20.9618   74.6273   -3.0427 P.3     1  UNL1        0.2208
     26 O          19.3654   74.6631   -2.7848 O.3     1  UNL1       -0.4371
     27 O          21.6054   75.9811   -3.1353 O.2     1  UNL1       -0.5170
     28 O          21.5448   73.6911   -1.8648 O.3     1  UNL1       -0.2858
     29 O          20.9839   71.7606   -0.6165 O.3     1  UNL1       -0.3226
     30 O          21.9221   74.4900    2.3750 O.3     1  UNL1       -0.3794
     31 O          20.3873   75.3218    0.0387 O.3     1  UNL1       -0.3775
     32 O          21.3735   71.7868    2.2271 O.3     1  UNL1       -0.3792
     33 C          21.9872   73.8385    1.1095 C.3     1  UNL1        0.1718
     34 C          20.6483   73.9632    0.3747 C.3     1  UNL1        0.1968
     35 C          22.3286   72.3622    1.3295 C.3     1  UNL1        0.1723
     36 C          20.6521   73.1222   -0.9079 C.3     1  UNL1        0.2706
     37 C          22.2633   71.6165   -0.0016 C.3     1  UNL1        0.1830
     38 H          22.7880   74.3838    2.8045 H       1  UNL1        0.2105
     39 H          19.5370   75.3496   -0.4315 H       1  UNL1        0.2106
     40 H          20.5340   71.6695    1.7511 H       1  UNL1        0.2106
     41 O          23.7776   69.8281    0.1084 O.co2   1  UNL1       -0.5466
     42 O          21.5685   69.3362    0.3821 O.co2   1  UNL1       -0.5466
     43 C          22.4628   70.1459    0.1846 C.2     1  UNL1        0.0799
@<TRIPOS>UNITY_ATOM_ATTR
41 1
charge -1
@<TRIPOS>BOND
     1     1     4    1
     2     1    24    1
     3     1     2    1
     4     1     3    2
     5    25    28    1
     6    25    24    1
     7    25    26    1
     8    25    27    2
     9     6    11    1
    10     6    12    1
    11    29    36    1
    12    29    37    1
    13     7     9    1
    14     7    13    1
    15     8    10    1
    16     8    14    1
    17     4     5    1
    18    28    36    1
    19    30    33    1
    20    30    38    1
    21    31    34    1
    22    31    39    1
    23    32    35    1
    24    32    40    1
    25    41    43   ar
    26    15    19    2
    27    42    43   ar
    28    16    22    2
    29    17    12    1
    30    17    19   ar
    31    17    20   ar
    32    18    19   ar
    33    18    22   ar
    34    18    23    1
    35     9    10    1
    36     9    11    1
    37    10    12    1
    38    11     5    1
    39    33    34    1
    40    33    35    1
    41    34    36    1
    42    35    37    1
    43    37    43    1
    44    20    21   ar
    45    21    22   ar
@<TRIPOS>MOLECULE
UDP-glaA
 43 45 0 0 0
SMALL
GASTEIGER

@<TRIPOS>ATOM
      1 P          22.7955   71.6886   -2.2200 P.3     1  UNL1        0.2189
      2 O          23.3070   73.2209   -2.3075 O.3     1  UNL1       -0.4371
      3 O          23.4306   70.7520   -3.2057 O.2     1  UNL1       -0.5170
      4 O          21.1850   71.8099   -2.3028 O.3     1  UNL1       -0.3112
      5 C          20.5400   71.4526   -3.5134 C.3     1  UNL1        0.1811
      6 O          18.6017   72.2463   -4.6911 O.3     1  UNL1       -0.3308
      7 O          16.9890   71.0419   -2.4685 O.3     1  UNL1       -0.3794
      8 O          16.7583   69.1805   -4.4479 O.3     1  UNL1       -0.3779
      9 C          18.1967   70.5706   -3.0661 C.3     1  UNL1        0.1713
     10 C          17.9138   69.9931   -4.4369 C.3     1  UNL1        0.1895
     11 C          19.0580   71.7811   -3.4018 C.3     1  UNL1        0.1764
     12 C          17.7546   71.2463   -5.2808 C.3     1  UNL1        0.2383
     13 H          17.2245   71.4372   -1.6119 H       1  UNL1        0.2105
     14 H          16.8975   68.4651   -3.8037 H       1  UNL1        0.2106
     15 O          16.0235   70.3696   -7.3327 O.2     1  UNL1       -0.2464
     16 O          19.3895   70.4985  -10.4779 O.2     1  UNL1       -0.2670
     17 N          18.1516   71.0428   -6.6447 N.ar    1  UNL1       -0.2551
     18 N          17.7009   70.4338   -8.8974 N.ar    1  UNL1       -0.2743
     19 C          17.2049   70.5997   -7.5976 C.ar    1  UNL1        0.3323
     20 C          19.4671   71.2817   -7.0266 C.ar    1  UNL1        0.0869
     21 C          19.9245   71.1193   -8.2701 C.ar    1  UNL1        0.0795
     22 C          19.0003   70.6582   -9.3251 C.ar    1  UNL1        0.2626
     23 H          17.0381   70.1153   -9.5991 H       1  UNL1        0.1734
     24 O          23.0518   71.3091   -0.6690 O.3     1  UNL1       -0.2703
     25 P          22.1249   70.5244    0.3977 P.3     1  UNL1        0.2208
     26 O          23.1964   69.9272    1.4518 O.3     1  UNL1       -0.4371
     27 O          21.2176   69.4957   -0.2141 O.2     1  UNL1       -0.5170
     28 O          21.3593   71.6901    1.2095 O.3     1  UNL1       -0.2858
     29 O          21.8403   74.0070    1.2020 O.3     1  UNL1       -0.3226
     30 O          20.1859   73.4731    4.9779 O.3     1  UNL1       -0.3794
     31 O          22.0370   71.5050    3.8796 O.3     1  UNL1       -0.3775
     32 O          20.9586   75.6130    3.4115 O.3     1  UNL1       -0.3792
     33 C          20.3935   73.2707    3.5828 C.3     1  UNL1        0.1718
     34 C          21.8267   72.7967    3.3190 C.3     1  UNL1        0.1968
     35 C          20.1337   74.5882    2.8472 C.3     1  UNL1        0.1723
     36 C          22.1120   72.7414    1.8131 C.3     1  UNL1        0.2706
     37 C          20.4881   74.4299    1.3703 C.3     1  UNL1        0.1830
     38 H          19.2690   73.7741    5.0974 H       1  UNL1        0.2105
     39 H          22.9517   71.2438    3.6797 H       1  UNL1        0.2106
     40 H          21.8749   75.4664    3.1217 H       1  UNL1        0.2106
     41 O          21.2303   75.7642   -0.4109 O.co2   1  UNL1       -0.5466
     42 O          19.6107   76.6369    0.9353 O.co2   1  UNL1       -0.5466
     43 C          20.3730   75.7287    0.6376 C.2     1  UNL1        0.0799
@<TRIPOS>UNITY_ATOM_ATTR
41 1
charge -1
@<TRIPOS>BOND
     1     1     4    1
     2     1    24    1
     3     1     2    1
     4     1     3    2
     5    25    28    1
     6    25    24    1
     7    25    26    1
     8    25    27    2
     9     6    11    1
    10     6    12    1
    11    29    36    1
    12    29    37    1
    13     7     9    1
    14     7    13    1
    15     8    10    1
    16     8    14    1
    17     4     5    1
    18    28    36    1
    19    30    33    1
    20    30    38    1
    21    31    34    1
    22    31    39    1
    23    32    35    1
    24    32    40    1
    25    41    43   ar
    26    15    19    2
    27    42    43   ar
    28    16    22    2
    29    17    12    1
    30    17    19   ar
    31    17    20   ar
    32    18    19   ar
    33    18    22   ar
    34    18    23    1
    35     9    10    1
    36     9    11    1
    37    10    12    1
    38    11     5    1
    39    33    34    1
    40    33    35    1
    41    34    36    1
    42    35    37    1
    43    37    43    1
    44    20    21   ar
    45    21    22   ar
@<TRIPOS>MOLECULE
UDP-glaA
 43 45 0 0 0
SMALL
GASTEIGER

@<TRIPOS>ATOM
      1 P          22.2080   73.2437   -4.7187 P.3     1  UNL1        0.2189
      2 O          21.7369   74.7851   -4.5788 O.3     1  UNL1       -0.4371
      3 O          23.6916   73.0269   -4.6539 O.2     1  UNL1       -0.5170
      4 O          21.4817   72.7354   -6.0713 O.3     1  UNL1       -0.3112
      5 C          20.7802   73.6814   -6.8601 C.3     1  UNL1        0.1811
      6 O          19.9621   71.5673   -7.6573 O.3     1  UNL1       -0.3308
      7 O          18.3801   73.1453   -9.6570 O.3     1  UNL1       -0.3794
      8 O          16.5125   72.5391   -7.7648 O.3     1  UNL1       -0.3779
      9 C          18.6962   73.4632   -8.3017 C.3     1  UNL1        0.1713
     10 C          17.8624   72.6236   -7.3571 C.3     1  UNL1        0.1895
     11 C          20.1049   72.9591   -8.0173 C.3     1  UNL1        0.1764
     12 C          18.5746   71.2828   -7.4142 C.3     1  UNL1        0.2383
     13 H          18.9645   73.6775  -10.2234 H       1  UNL1        0.2105
     14 H          16.1623   73.4456   -7.8071 H       1  UNL1        0.2106
     15 O          16.1826   70.1034   -6.4851 O.2     1  UNL1       -0.2464
     16 O          18.2394   68.4835   -2.6925 O.2     1  UNL1       -0.2670
     17 N          18.4565   70.5468   -6.1879 N.ar    1  UNL1       -0.2551
     18 N          17.2083   69.2980   -4.5969 N.ar    1  UNL1       -0.2743
     19 C          17.2093   69.9953   -5.8122 C.ar    1  UNL1        0.3323
     20 C          19.5691   70.3774   -5.3713 C.ar    1  UNL1        0.0869
     21 C          19.5520   69.7094   -4.2157 C.ar    1  UNL1        0.0795
     22 C          18.2888   69.1033   -3.7505 C.ar    1  UNL1        0.2626
     23 H          16.3223   68.8934   -4.3064 H       1  UNL1        0.1734
     24 O          21.3673   72.5008   -3.5539 O.3     1  UNL1       -0.2703
     25 P          21.8552   71.7543   -2.2059 P.3     1  UNL1        0.2208
     26 O          23.0145   70.7570   -2.7327 O.3     1  UNL1       -0.4371
     27 O          20.7528   71.0760   -1.4440 O.2     1  UNL1       -0.5170
     28 O          22.6415   72.8898   -1.3713 O.3     1  UNL1       -0.2858
     29 O          21.5615   73.4749    0.6512 O.3     1  UNL1       -0.3226
     30 O          24.5743   76.3292    0.4151 O.3     1  UNL1       -0.3794
     31 O          23.0820   75.5496   -1.9663 O.3     1  UNL1       -0.3775
     32 O          22.7087   75.5331    2.2902 O.3     1  UNL1       -0.3792
     33 C          23.9309   75.0674    0.2593 C.3     1  UNL1        0.1718
     34 C          22.6975   75.2039   -0.6398 C.3     1  UNL1        0.1968
     35 C          23.5182   74.5482    1.6394 C.3     1  UNL1        0.1723
     36 C          21.9029   73.8924   -0.6747 C.3     1  UNL1        0.2706
     37 C          22.7021   73.2670    1.4827 C.3     1  UNL1        0.1830
     38 H          25.3457   76.1959    0.9919 H       1  UNL1        0.2105
     39 H          22.2716   75.6152   -2.4990 H       1  UNL1        0.2106
     40 H          21.8313   75.5376    1.8715 H       1  UNL1        0.2106
     41 O          21.1216   71.9531    2.6139 O.co2   1  UNL1       -0.5466
     42 O          22.6101   73.1155    3.8907 O.co2   1  UNL1       -0.5466
     43 C          22.1677   72.7944    2.7973 C.2     1  UNL1        0.0799
@<TRIPOS>UNITY_ATOM_ATTR
41 1
charge -1
@<TRIPOS>BOND
     1     1     4    1
     2     1    24    1
     3     1     2    1
     4     1     3    2
     5    25    28    1
     6    25    24    1
     7    25    26    1
     8    25    27    2
     9     6    11    1
    10     6    12    1
    11    29    36    1
    12    29    37    1
    13     7     9    1
    14     7    13    1
    15     8    10    1
    16     8    14    1
    17     4     5    1
    18    28    36    1
    19    30    33    1
    20    30    38    1
    21    31    34    1
    22    31    39    1
    23    32    35    1
    24    32    40    1
    25    41    43   ar
    26    15    19    2
    27    42    43   ar
    28    16    22    2
    29    17    12    1
    30    17    19   ar
    31    17    20   ar
    32    18    19   ar
    33    18    22   ar
    34    18    23    1
    35     9    10    1
    36     9    11    1
    37    10    12    1
    38    11     5    1
    39    33    34    1
    40    33    35    1
    41    34    36    1
    42    35    37    1
    43    37    43    1
    44    20    21   ar
    45    21    22   ar
@<TRIPOS>MOLECULE
UDP-glaA
 43 45 0 0 0
SMALL
GASTEIGER

@<TRIPOS>ATOM
      1 P          21.5456   70.4505   -0.9497 P.3     1  UNL1        0.2189
      2 O          23.0026   70.9209   -1.4723 O.3     1  UNL1       -0.4371
      3 O          21.5657   69.5108    0.2202 O.2     1  UNL1       -0.5170
      4 O          20.8132   69.8987   -2.2819 O.3     1  UNL1       -0.3112
      5 C          20.5790   70.8013   -3.3494 C.3     1  UNL1        0.1811
      6 O          18.8111   71.9451   -4.5073 O.3     1  UNL1       -0.3308
      7 O          16.9782   70.8537   -2.4000 O.3     1  UNL1       -0.3794
      8 O          16.5339   69.1755   -4.5029 O.3     1  UNL1       -0.3779
      9 C          18.1205   70.2482   -3.0052 C.3     1  UNL1        0.1713
     10 C          17.7949   69.8065   -4.4164 C.3     1  UNL1        0.1895
     11 C          19.1583   71.3371   -3.2436 C.3     1  UNL1        0.1764
     12 C          17.8440   71.1202   -5.1778 C.3     1  UNL1        0.2383
     13 H          17.2448   71.1550   -1.5147 H       1  UNL1        0.2105
     14 H          16.5490   68.4081   -3.9054 H       1  UNL1        0.2106
     15 O          16.0874   70.4427   -7.2827 O.2     1  UNL1       -0.2464
     16 O          19.4963   70.4796  -10.3838 O.2     1  UNL1       -0.2670
     17 N          18.2452   70.9470   -6.5446 N.ar    1  UNL1       -0.2551
     18 N          17.7861   70.4610   -8.8254 N.ar    1  UNL1       -0.2743
     19 C          17.2845   70.6058   -7.5252 C.ar    1  UNL1        0.3323
     20 C          19.5784   71.1148   -6.9023 C.ar    1  UNL1        0.0869
     21 C          20.0408   70.9737   -8.1465 C.ar    1  UNL1        0.0795
     22 C          19.1029   70.6174   -9.2295 C.ar    1  UNL1        0.2626
     23 H          17.1134   70.2153   -9.5467 H       1  UNL1        0.1734
     24 O          20.7893   71.8531   -0.6741 O.3     1  UNL1       -0.2703
     25 P          21.3507   73.3679   -0.6212 P.3     1  UNL1        0.2208
     26 O          20.0625   74.2556   -1.0317 O.3     1  UNL1       -0.4371
     27 O          22.5643   73.6051   -1.4738 O.2     1  UNL1       -0.5170
     28 O          21.5701   73.6681    0.9490 O.3     1  UNL1       -0.2858
     29 O          23.6255   74.3350    1.9133 O.3     1  UNL1       -0.3226
     30 O          21.6665   72.6068    5.1468 O.3     1  UNL1       -0.3794
     31 O          21.5222   71.3859    2.5020 O.3     1  UNL1       -0.3775
     32 O          23.9790   74.0642    4.7489 O.3     1  UNL1       -0.3792
     33 C          21.8290   73.3290    3.9292 C.3     1  UNL1        0.1718
     34 C          22.4315   72.4253    2.8482 C.3     1  UNL1        0.1968
     35 C          22.7484   74.5268    4.1829 C.3     1  UNL1        0.1723
     36 C          22.7691   73.2346    1.5898 C.3     1  UNL1        0.2706
     37 C          23.0493   75.2315    2.8619 C.3     1  UNL1        0.1830
     38 H          21.2858   73.2170    5.8012 H       1  UNL1        0.2105
     39 H          21.9419   70.8473    1.8102 H       1  UNL1        0.2106
     40 H          24.4977   73.6322    4.0492 H       1  UNL1        0.2106
     41 O          23.5147   77.5243    2.6876 O.co2   1  UNL1       -0.5466
     42 O          25.1881   76.1809    3.4570 O.co2   1  UNL1       -0.5466
     43 C          24.0476   76.3304    3.0430 C.2     1  UNL1        0.0799
@<TRIPOS>UNITY_ATOM_ATTR
41 1
charge -1
@<TRIPOS>BOND
     1     1     4    1
     2     1    24    1
     3     1     2    1
     4     1     3    2
     5    25    28    1
     6    25    24    1
     7    25    26    1
     8    25    27    2
     9     6    11    1
    10     6    12    1
    11    29    36    1
    12    29    37    1
    13     7     9    1
    14     7    13    1
    15     8    10    1
    16     8    14    1
    17     4     5    1
    18    28    36    1
    19    30    33    1
    20    30    38    1
    21    31    34    1
    22    31    39    1
    23    32    35    1
    24    32    40    1
    25    41    43   ar
    26    15    19    2
    27    42    43   ar
    28    16    22    2
    29    17    12    1
    30    17    19   ar
    31    17    20   ar
    32    18    19   ar
    33    18    22   ar
    34    18    23    1
    35     9    10    1
    36     9    11    1
    37    10    12    1
    38    11     5    1
    39    33    34    1
    40    33    35    1
    41    34    36    1
    42    35    37    1
    43    37    43    1
    44    20    21   ar
    45    21    22   ar
@<TRIPOS>MOLECULE
UDP-glaA
 43 45 0 0 0
SMALL
GASTEIGER

@<TRIPOS>ATOM
      1 P          21.5834   70.6056   -1.0921 P.3     1  UNL1        0.2189
      2 O          23.1501   70.7195   -1.4792 O.3     1  UNL1       -0.4371
      3 O          21.2905   69.7767    0.1242 O.2     1  UNL1       -0.5170
      4 O          20.8778   70.1164   -2.4626 O.3     1  UNL1       -0.3112
      5 C          20.6035   71.0805   -3.4649 C.3     1  UNL1        0.1811
      6 O          18.7408   72.0646   -4.6208 O.3     1  UNL1       -0.3308
      7 O          17.0238   70.9074   -2.4519 O.3     1  UNL1       -0.3794
      8 O          16.6648   69.1437   -4.5003 O.3     1  UNL1       -0.3779
      9 C          18.1959   70.3665   -3.0612 C.3     1  UNL1        0.1713
     10 C          17.8794   69.8635   -4.4538 C.3     1  UNL1        0.1895
     11 C          19.1504   71.5182   -3.3477 C.3     1  UNL1        0.1764
     12 C          17.8234   71.1554   -5.2511 C.3     1  UNL1        0.2383
     13 H          17.2828   71.2515   -1.5800 H       1  UNL1        0.2105
     14 H          16.7436   68.3964   -3.8826 H       1  UNL1        0.2106
     15 O          16.0634   70.3918   -7.3234 O.2     1  UNL1       -0.2464
     16 O          19.4329   70.4806  -10.4661 O.2     1  UNL1       -0.2670
     17 N          18.2136   70.9723   -6.6199 N.ar    1  UNL1       -0.2551
     18 N          17.7425   70.4360   -8.8869 N.ar    1  UNL1       -0.2743
     19 C          17.2521   70.5867   -7.5831 C.ar    1  UNL1        0.3323
     20 C          19.5368   71.1741   -6.9964 C.ar    1  UNL1        0.0869
     21 C          19.9886   71.0269   -8.2438 C.ar    1  UNL1        0.0795
     22 C          19.0492   70.6251   -9.3095 C.ar    1  UNL1        0.2626
     23 H          17.0691   70.1586   -9.5959 H       1  UNL1        0.1734
     24 O          21.1246   72.1522   -0.9795 O.3     1  UNL1       -0.2703
     25 P          21.3942   73.2572    0.1689 P.3     1  UNL1        0.2208
     26 O          22.3787   72.4903    1.1979 O.3     1  UNL1       -0.4371
     27 O          20.1469   73.8084    0.7984 O.2     1  UNL1       -0.5170
     28 O          22.3283   74.3652   -0.5409 O.3     1  UNL1       -0.2858
     29 O          24.2260   74.1589   -1.9394 O.3     1  UNL1       -0.3226
     30 O          25.1157   77.5876    0.2359 O.3     1  UNL1       -0.3794
     31 O          23.8960   75.2810    1.5390 O.3     1  UNL1       -0.3775
     32 O          26.1865   76.2553   -1.9340 O.3     1  UNL1       -0.3792
     33 C          24.3205   76.6203   -0.4441 C.3     1  UNL1        0.1718
     34 C          24.4535   75.2502    0.2294 C.3     1  UNL1        0.1968
     35 C          24.7830   76.5349   -1.9012 C.3     1  UNL1        0.1723
     36 C          23.7408   74.1693   -0.5928 C.3     1  UNL1        0.2706
     37 C          24.0402   75.4044   -2.6100 C.3     1  UNL1        0.1830
     38 H          25.0030   78.4364   -0.2250 H       1  UNL1        0.2105
     39 H          23.9945   74.3925    1.9208 H       1  UNL1        0.2106
     40 H          26.3220   75.3249   -1.6868 H       1  UNL1        0.2106
     41 O          25.6369   74.3867   -3.9951 O.co2   1  UNL1       -0.5466
     42 O          24.0654   75.6916   -5.0072 O.co2   1  UNL1       -0.5466
     43 C          24.5531   75.1996   -4.0000 C.2     1  UNL1        0.0799
@<TRIPOS>UNITY_ATOM_ATTR
41 1
charge -1
@<TRIPOS>BOND
     1     1     4    1
     2     1    24    1
     3     1     2    1
     4     1     3    2
     5    25    28    1
     6    25    24    1
     7    25    26    1
     8    25    27    2
     9     6    11    1
    10     6    12    1
    11    29    36    1
    12    29    37    1
    13     7     9    1
    14     7    13    1
    15     8    10    1
    16     8    14    1
    17     4     5    1
    18    28    36    1
    19    30    33    1
    20    30    38    1
    21    31    34    1
    22    31    39    1
    23    32    35    1
    24    32    40    1
    25    41    43   ar
    26    15    19    2
    27    42    43   ar
    28    16    22    2
    29    17    12    1
    30    17    19   ar
    31    17    20   ar
    32    18    19   ar
    33    18    22   ar
    34    18    23    1
    35     9    10    1
    36     9    11    1
    37    10    12    1
    38    11     5    1
    39    33    34    1
    40    33    35    1
    41    34    36    1
    42    35    37    1
    43    37    43    1
    44    20    21   ar
    45    21    22   ar
@<TRIPOS>MOLECULE
UDP-glaA
 43 45 0 0 0
SMALL
GASTEIGER

@<TRIPOS>ATOM
      1 P          21.4603   73.5305   -3.9693 P.3     1  UNL1        0.2189
      2 O          20.0852   74.1175   -3.3513 O.3     1  UNL1       -0.4371
      3 O          22.7134   74.0259   -3.3087 O.2     1  UNL1       -0.5170
      4 O          21.3350   73.8307   -5.5535 O.3     1  UNL1       -0.3112
      5 C          22.2793   73.2416   -6.4314 C.3     1  UNL1        0.1811
      6 O          21.0989   72.8384   -8.4853 O.3     1  UNL1       -0.3308
      7 O          21.6540   75.7092   -9.1499 O.3     1  UNL1       -0.3794
      8 O          19.0615   75.7834   -8.3079 O.3     1  UNL1       -0.3779
      9 C          21.3606   75.1153   -7.8854 C.3     1  UNL1        0.1713
     10 C          19.8914   74.7589   -7.8009 C.3     1  UNL1        0.1895
     11 C          22.0238   73.7449   -7.8449 C.3     1  UNL1        0.1764
     12 C          19.8262   73.4893   -8.6327 C.3     1  UNL1        0.2383
     13 H          22.6103   75.8840   -9.1730 H       1  UNL1        0.2105
     14 H          19.2424   76.5885   -7.7928 H       1  UNL1        0.2106
     15 O          17.0962   73.7563   -9.3047 O.2     1  UNL1       -0.2464
     16 O          15.9448   70.0092   -6.8816 O.2     1  UNL1       -0.2670
     17 N          18.7917   72.5977   -8.1919 N.ar    1  UNL1       -0.2551
     18 N          16.5246   71.8905   -8.0972 N.ar    1  UNL1       -0.2743
     19 C          17.4515   72.8210   -8.5853 C.ar    1  UNL1        0.3323
     20 C          19.1094   71.5157   -7.3784 C.ar    1  UNL1        0.0869
     21 C          18.2142   70.6371   -6.9216 C.ar    1  UNL1        0.0795
     22 C          16.7926   70.7992   -7.2854 C.ar    1  UNL1        0.2626
     23 H          15.5548   72.0316   -8.3668 H       1  UNL1        0.1734
     24 O          21.2417   71.9304   -3.8845 O.3     1  UNL1       -0.2703
     25 P          21.8151   70.8357   -2.8427 P.3     1  UNL1        0.2208
     26 O          23.4098   70.8675   -3.1114 O.3     1  UNL1       -0.4371
     27 O          21.1915   69.4756   -2.9730 O.2     1  UNL1       -0.5170
     28 O          21.6318   71.5169   -1.3914 O.3     1  UNL1       -0.2858
     29 O          23.3096   72.8592   -0.4001 O.3     1  UNL1       -0.3226
     30 O          21.0571   71.7042    2.8971 O.3     1  UNL1       -0.3794
     31 O          21.6549   69.7999    0.7705 O.3     1  UNL1       -0.3775
     32 O          23.1249   73.4665    2.3991 O.3     1  UNL1       -0.3792
     33 C          21.3382   72.0794    1.5515 C.3     1  UNL1        0.1718
     34 C          22.2887   71.0680    0.9021 C.3     1  UNL1        0.1968
     35 C          21.9738   73.4724    1.5484 C.3     1  UNL1        0.1723
     36 C          22.7325   71.5520   -0.4840 C.3     1  UNL1        0.2706
     37 C          22.4123   73.8332    0.1308 C.3     1  UNL1        0.1830
     38 H          20.4557   72.3720    3.2683 H       1  UNL1        0.2105
     39 H          22.2895   69.1973    0.3474 H       1  UNL1        0.2106
     40 H          23.8388   72.9833    1.9496 H       1  UNL1        0.2106
     41 O          24.4913   74.9192    0.1780 O.co2   1  UNL1       -0.5466
     42 O          22.6364   76.2346    0.0168 O.co2   1  UNL1       -0.5466
     43 C          23.1553   75.1310    0.1014 C.2     1  UNL1        0.0799
@<TRIPOS>UNITY_ATOM_ATTR
41 1
charge -1
@<TRIPOS>BOND
     1     1     4    1
     2     1    24    1
     3     1     2    1
     4     1     3    2
     5    25    28    1
     6    25    24    1
     7    25    26    1
     8    25    27    2
     9     6    11    1
    10     6    12    1
    11    29    36    1
    12    29    37    1
    13     7     9    1
    14     7    13    1
    15     8    10    1
    16     8    14    1
    17     4     5    1
    18    28    36    1
    19    30    33    1
    20    30    38    1
    21    31    34    1
    22    31    39    1
    23    32    35    1
    24    32    40    1
    25    41    43   ar
    26    15    19    2
    27    42    43   ar
    28    16    22    2
    29    17    12    1
    30    17    19   ar
    31    17    20   ar
    32    18    19   ar
    33    18    22   ar
    34    18    23    1
    35     9    10    1
    36     9    11    1
    37    10    12    1
    38    11     5    1
    39    33    34    1
    40    33    35    1
    41    34    36    1
    42    35    37    1
    43    37    43    1
    44    20    21   ar
    45    21    22   ar
@<TRIPOS>MOLECULE
UDP-glaA
 43 45 0 0 0
SMALL
GASTEIGER

@<TRIPOS>ATOM
      1 P          21.5967   73.2380   -6.1363 P.3     1  UNL1        0.2189
      2 O          21.5087   74.8534   -6.1268 O.3     1  UNL1       -0.4371
      3 O          22.7317   72.6706   -6.9375 O.2     1  UNL1       -0.5170
      4 O          20.1156   72.7697   -6.5862 O.3     1  UNL1       -0.3112
      5 C          19.7578   71.4075   -6.4256 C.3     1  UNL1        0.1811
      6 O          17.5736   71.0258   -7.3518 O.3     1  UNL1       -0.3308
      7 O          18.9082   71.0753  -10.0365 O.3     1  UNL1       -0.3794
      8 O          17.8081   73.5649   -9.8724 O.3     1  UNL1       -0.3779
      9 C          19.1998   71.8427   -8.8686 C.3     1  UNL1        0.1713
     10 C          18.1469   72.9119   -8.6665 C.3     1  UNL1        0.1895
     11 C          18.9843   70.9496   -7.6539 C.3     1  UNL1        0.1764
     12 C          16.9909   72.1119   -8.0908 C.3     1  UNL1        0.2383
     13 H          19.5852   70.3804  -10.1031 H       1  UNL1        0.2105
     14 H          18.6222   73.9582  -10.2311 H       1  UNL1        0.2106
     15 O          14.9523   73.8710   -8.9424 O.2     1  UNL1       -0.2464
     16 O          13.9103   75.0526   -4.6116 O.2     1  UNL1       -0.2670
     17 N          16.1711   72.8912   -7.2075 N.ar    1  UNL1       -0.2551
     18 N          14.4351   74.4586   -6.7853 N.ar    1  UNL1       -0.2743
     19 C          15.1754   73.7449   -7.7370 C.ar    1  UNL1        0.3323
     20 C          16.3577   72.8053   -5.8323 C.ar    1  UNL1        0.0869
     21 C          15.6434   73.4919   -4.9378 C.ar    1  UNL1        0.0795
     22 C          14.5843   74.4066   -5.4080 C.ar    1  UNL1        0.2626
     23 H          13.7140   75.0792   -7.1432 H       1  UNL1        0.1734
     24 O          21.6321   72.8678   -4.5624 O.3     1  UNL1       -0.2703
     25 P          22.8627   72.4625   -3.5960 P.3     1  UNL1        0.2208
     26 O          24.0878   73.3547   -4.1611 O.3     1  UNL1       -0.4371
     27 O          23.1432   70.9880   -3.5414 O.2     1  UNL1       -0.5170
     28 O          22.4985   73.1251   -2.1704 O.3     1  UNL1       -0.2858
     29 O          21.5738   71.3978   -0.8435 O.3     1  UNL1       -0.3226
     30 O          21.5202   74.6286    1.7715 O.3     1  UNL1       -0.3794
     31 O          20.7993   74.9800   -1.0325 O.3     1  UNL1       -0.3775
     32 O          21.0475   71.9118    1.9309 O.3     1  UNL1       -0.3792
     33 C          21.9811   73.7828    0.7215 C.3     1  UNL1        0.1718
     34 C          20.9418   73.7113   -0.4023 C.3     1  UNL1        0.1968
     35 C          22.2365   72.3837    1.2886 C.3     1  UNL1        0.1723
     36 C          21.3500   72.6728   -1.4545 C.3     1  UNL1        0.2706
     37 C          22.5943   71.4271    0.1532 C.3     1  UNL1        0.1830
     38 H          22.2067   74.6421    2.4601 H       1  UNL1        0.2105
     39 H          20.1405   74.8835   -1.7407 H       1  UNL1        0.2106
     40 H          20.4007   71.6719    1.2458 H       1  UNL1        0.2106
     41 O          23.3785   69.9864    1.8305 O.co2   1  UNL1       -0.5466
     42 O          22.3023   69.0321    0.0618 O.co2   1  UNL1       -0.5466
     43 C          22.7257   70.0203    0.6437 C.2     1  UNL1        0.0799
@<TRIPOS>UNITY_ATOM_ATTR
41 1
charge -1
@<TRIPOS>BOND
     1     1     4    1
     2     1    24    1
     3     1     2    1
     4     1     3    2
     5    25    28    1
     6    25    24    1
     7    25    26    1
     8    25    27    2
     9     6    11    1
    10     6    12    1
    11    29    36    1
    12    29    37    1
    13     7     9    1
    14     7    13    1
    15     8    10    1
    16     8    14    1
    17     4     5    1
    18    28    36    1
    19    30    33    1
    20    30    38    1
    21    31    34    1
    22    31    39    1
    23    32    35    1
    24    32    40    1
    25    41    43   ar
    26    15    19    2
    27    42    43   ar
    28    16    22    2
    29    17    12    1
    30    17    19   ar
    31    17    20   ar
    32    18    19   ar
    33    18    22   ar
    34    18    23    1
    35     9    10    1
    36     9    11    1
    37    10    12    1
    38    11     5    1
    39    33    34    1
    40    33    35    1
    41    34    36    1
    42    35    37    1
    43    37    43    1
    44    20    21   ar
    45    21    22   ar
@<TRIPOS>MOLECULE
UDP-glaA
 43 45 0 0 0
SMALL
GASTEIGER

@<TRIPOS>ATOM
      1 P          21.9640   70.5173    0.0186 P.3     1  UNL1        0.2189
      2 O          22.3663   68.9958    0.3937 O.3     1  UNL1       -0.4371
      3 O          23.0287   71.2952   -0.6979 O.2     1  UNL1       -0.5170
      4 O          21.4593   71.1441    1.4214 O.3     1  UNL1       -0.3112
      5 C          22.4064   71.7918    2.2537 C.3     1  UNL1        0.1811
      6 O          22.7089   72.8462    4.3917 O.3     1  UNL1       -0.3308
      7 O          19.7413   73.2755    4.3906 O.3     1  UNL1       -0.3794
      8 O          20.6971   75.7218    3.6574 O.3     1  UNL1       -0.3779
      9 C          20.6603   73.3174    3.2992 C.3     1  UNL1        0.1713
     10 C          21.4826   74.5877    3.3535 C.3     1  UNL1        0.1895
     11 C          21.7157   72.2444    3.5323 C.3     1  UNL1        0.1764
     12 C          22.4897   74.2655    4.4444 C.3     1  UNL1        0.2383
     13 H          19.2657   72.4290    4.3367 H       1  UNL1        0.2105
     14 H          20.0107   75.7946    2.9721 H       1  UNL1        0.2106
     15 O          23.9218   75.5892    6.4869 O.2     1  UNL1       -0.2464
     16 O          27.2840   76.8184    3.5846 O.2     1  UNL1       -0.2670
     17 N          23.7419   74.9391    4.2508 N.ar    1  UNL1       -0.2551
     18 N          25.5949   76.2009    5.0402 N.ar    1  UNL1       -0.2743
     19 C          24.3789   75.5738    5.3426 C.ar    1  UNL1        0.3323
     20 C          24.3264   74.9666    2.9894 C.ar    1  UNL1        0.0869
     21 C          25.4865   75.5683    2.7173 C.ar    1  UNL1        0.0795
     22 C          26.2156   76.2552    3.8018 C.ar    1  UNL1        0.2626
     23 H          26.0704   76.6642    5.8098 H       1  UNL1        0.1734
     24 O          20.5891   70.3340   -0.8128 O.3     1  UNL1       -0.2703
     25 P          20.3292   70.0463   -2.3820 P.3     1  UNL1        0.2208
     26 O          19.0292   69.0840   -2.3725 O.3     1  UNL1       -0.4371
     27 O          21.5150   69.4793   -3.1089 O.2     1  UNL1       -0.5170
     28 O          19.7942   71.4497   -2.9719 O.3     1  UNL1       -0.2858
     29 O          18.9514   71.4169   -5.1828 O.3     1  UNL1       -0.3226
     30 O          19.3406   75.4918   -4.4594 O.3     1  UNL1       -0.3794
     31 O          21.3913   73.6244   -3.5575 O.3     1  UNL1       -0.3775
     32 O          18.2434   73.9015   -6.4335 O.3     1  UNL1       -0.3792
     33 C          19.0948   74.1157   -4.1832 C.3     1  UNL1        0.1718
     34 C          20.3492   73.2817   -4.4650 C.3     1  UNL1        0.1968
     35 C          17.9369   73.6335   -5.0613 C.3     1  UNL1        0.1723
     36 C          20.0457   71.7838   -4.3362 C.3     1  UNL1        0.2706
     37 C          17.7511   72.1281   -4.8843 C.3     1  UNL1        0.1830
     38 H          18.5213   75.9800   -4.2699 H       1  UNL1        0.2105
     39 H          22.1587   73.0660   -3.7677 H       1  UNL1        0.2106
     40 H          18.9192   73.2680   -6.7285 H       1  UNL1        0.2106
     41 O          15.8767   72.5760   -6.2221 O.co2   1  UNL1       -0.5466
     42 O          16.6321   70.4255   -6.1800 O.co2   1  UNL1       -0.5466
     43 C          16.7153   71.5908   -5.8200 C.2     1  UNL1        0.0799
@<TRIPOS>UNITY_ATOM_ATTR
41 1
charge -1
@<TRIPOS>BOND
     1     1     4    1
     2     1    24    1
     3     1     2    1
     4     1     3    2
     5    25    28    1
     6    25    24    1
     7    25    26    1
     8    25    27    2
     9     6    11    1
    10     6    12    1
    11    29    36    1
    12    29    37    1
    13     7     9    1
    14     7    13    1
    15     8    10    1
    16     8    14    1
    17     4     5    1
    18    28    36    1
    19    30    33    1
    20    30    38    1
    21    31    34    1
    22    31    39    1
    23    32    35    1
    24    32    40    1
    25    41    43   ar
    26    15    19    2
    27    42    43   ar
    28    16    22    2
    29    17    12    1
    30    17    19   ar
    31    17    20   ar
    32    18    19   ar
    33    18    22   ar
    34    18    23    1
    35     9    10    1
    36     9    11    1
    37    10    12    1
    38    11     5    1
    39    33    34    1
    40    33    35    1
    41    34    36    1
    42    35    37    1
    43    37    43    1
    44    20    21   ar
    45    21    22   ar
@<TRIPOS>MOLECULE
UDP-glaA
 43 45 0 0 0
SMALL
GASTEIGER

@<TRIPOS>ATOM
      1 P          22.9027   72.0306   -3.5390 P.3     1  UNL1        0.2189
      2 O          23.9795   73.2072   -3.8103 O.3     1  UNL1       -0.4371
      3 O          23.4970   70.6872   -3.2318 O.2     1  UNL1       -0.5170
      4 O          21.9278   72.0897   -4.8281 O.3     1  UNL1       -0.3112
      5 C          21.6786   73.3477   -5.4318 C.3     1  UNL1        0.1811
      6 O          21.1168   72.7707   -7.6958 O.3     1  UNL1       -0.3308
      7 O          23.3978   74.5367   -8.5142 O.3     1  UNL1       -0.3794
      8 O          21.2263   76.1261   -8.9550 O.3     1  UNL1       -0.3779
      9 C          22.4745   74.6949   -7.4370 C.3     1  UNL1        0.1713
     10 C          21.1217   75.1250   -7.9638 C.3     1  UNL1        0.1895
     11 C          22.1717   73.3136   -6.8714 C.3     1  UNL1        0.1764
     12 C          20.5652   73.8203   -8.5078 C.3     1  UNL1        0.2383
     13 H          24.2361   74.2237   -8.1338 H       1  UNL1        0.2105
     14 H          21.6890   76.8839   -8.5580 H       1  UNL1        0.2106
     15 O          18.9424   72.2727  -10.2245 O.2     1  UNL1       -0.2464
     16 O          15.0800   73.6791   -8.1407 O.2     1  UNL1       -0.2670
     17 N          19.1331   73.7628   -8.4360 N.ar    1  UNL1       -0.2551
     18 N          17.0201   72.9745   -9.1860 N.ar    1  UNL1       -0.2743
     19 C          18.4119   72.9550   -9.3460 C.ar    1  UNL1        0.3323
     20 C          18.4573   74.5021   -7.4716 C.ar    1  UNL1        0.0869
     21 C          17.1298   74.5097   -7.3316 C.ar    1  UNL1        0.0795
     22 C          16.3029   73.6936   -8.2425 C.ar    1  UNL1        0.2626
     23 H          16.4811   72.4015   -9.8297 H       1  UNL1        0.1734
     24 O          21.9831   72.6459   -2.3597 O.3     1  UNL1       -0.2703
     25 P          20.8210   71.9723   -1.4606 P.3     1  UNL1        0.2208
     26 O          21.2462   70.4125   -1.4126 O.3     1  UNL1       -0.4371
     27 O          19.4289   72.2201   -1.9669 O.2     1  UNL1       -0.5170
     28 O          21.0934   72.5161    0.0341 O.3     1  UNL1       -0.2858
     29 O          22.8817   73.8609    0.8042 O.3     1  UNL1       -0.3226
     30 O          21.9491   71.6316    4.1865 O.3     1  UNL1       -0.3794
     31 O          21.9752   70.3840    1.5504 O.3     1  UNL1       -0.3775
     32 O          23.5775   73.7810    3.5877 O.3     1  UNL1       -0.3792
     33 C          21.7380   72.3425    2.9698 C.3     1  UNL1        0.1718
     34 C          22.5051   71.6772    1.8220 C.3     1  UNL1        0.1968
     35 C          22.2144   73.7864    3.1507 C.3     1  UNL1        0.1723
     36 C          22.4242   72.5288    0.5490 C.3     1  UNL1        0.2706
     37 C          22.1288   74.5260    1.8174 C.3     1  UNL1        0.1830
     38 H          21.4483   72.0883    4.8837 H       1  UNL1        0.2105
     39 H          22.4845   70.0072    0.8132 H       1  UNL1        0.2106
     40 H          24.1423   73.5380    2.8347 H       1  UNL1        0.2106
     41 O          23.0537   76.3650    0.6920 O.co2   1  UNL1       -0.5466
     42 O          22.8447   76.5311    2.9560 O.co2   1  UNL1       -0.5466
     43 C          22.7058   75.9022    1.9170 C.2     1  UNL1        0.0799
@<TRIPOS>UNITY_ATOM_ATTR
41 1
charge -1
@<TRIPOS>BOND
     1     1     4    1
     2     1    24    1
     3     1     2    1
     4     1     3    2
     5    25    28    1
     6    25    24    1
     7    25    26    1
     8    25    27    2
     9     6    11    1
    10     6    12    1
    11    29    36    1
    12    29    37    1
    13     7     9    1
    14     7    13    1
    15     8    10    1
    16     8    14    1
    17     4     5    1
    18    28    36    1
    19    30    33    1
    20    30    38    1
    21    31    34    1
    22    31    39    1
    23    32    35    1
    24    32    40    1
    25    41    43   ar
    26    15    19    2
    27    42    43   ar
    28    16    22    2
    29    17    12    1
    30    17    19   ar
    31    17    20   ar
    32    18    19   ar
    33    18    22   ar
    34    18    23    1
    35     9    10    1
    36     9    11    1
    37    10    12    1
    38    11     5    1
    39    33    34    1
    40    33    35    1
    41    34    36    1
    42    35    37    1
    43    37    43    1
    44    20    21   ar
    45    21    22   ar
@<TRIPOS>MOLECULE
UDP-glaA
 43 45 0 0 0
SMALL
GASTEIGER

@<TRIPOS>ATOM
      1 P          22.3816   73.2981   -5.1344 P.3     1  UNL1        0.2189
      2 O          22.7055   74.8476   -5.4684 O.3     1  UNL1       -0.4371
      3 O          23.4902   72.5531   -4.4502 O.2     1  UNL1       -0.5170
      4 O          21.8938   72.6879   -6.5504 O.3     1  UNL1       -0.3112
      5 C          20.9088   73.3914   -7.2880 C.3     1  UNL1        0.1811
      6 O          20.1478   71.1524   -7.7146 O.3     1  UNL1       -0.3308
      7 O          18.6614   72.3027  -10.0510 O.3     1  UNL1       -0.3794
      8 O          16.7019   72.0301   -8.1744 O.3     1  UNL1       -0.3779
      9 C          18.9043   72.8734   -8.7653 C.3     1  UNL1        0.1713
     10 C          18.0281   72.2114   -7.7229 C.3     1  UNL1        0.1895
     11 C          20.2997   72.4546   -8.3214 C.3     1  UNL1        0.1764
     12 C          18.7514   70.8956   -7.4920 C.3     1  UNL1        0.2383
     13 H          19.2709   72.7292  -10.6773 H       1  UNL1        0.2105
     14 H          16.3482   72.9069   -8.4033 H       1  UNL1        0.2106
     15 O          16.3688   69.7266   -6.5265 O.2     1  UNL1       -0.2464
     16 O          18.1872   69.0302   -2.3495 O.2     1  UNL1       -0.2670
     17 N          18.5747   70.3998   -6.1570 N.ar    1  UNL1       -0.2551
     18 N          17.2757   69.3811   -4.4470 N.ar    1  UNL1       -0.2743
     19 C          17.3377   69.8316   -5.7723 C.ar    1  UNL1        0.3323
     20 C          19.6204   70.4792   -5.2439 C.ar    1  UNL1        0.0869
     21 C          19.5457   70.0447   -3.9840 C.ar    1  UNL1        0.0795
     22 C          18.2885   69.4389   -3.5022 C.ar    1  UNL1        0.2626
     23 H          16.3957   68.9694   -4.1482 H       1  UNL1        0.1734
     24 O          21.0079   73.3898   -4.2860 O.3     1  UNL1       -0.2703
     25 P          20.7175   73.9423   -2.7950 P.3     1  UNL1        0.2208
     26 O          19.1077   74.0964   -2.7634 O.3     1  UNL1       -0.4371
     27 O          21.4673   75.1958   -2.4456 O.2     1  UNL1       -0.5170
     28 O          21.0268   72.6888   -1.8270 O.3     1  UNL1       -0.2858
     29 O          22.1914   73.2397    0.1579 O.3     1  UNL1       -0.3226
     30 O          22.3385   69.0856    0.1863 O.3     1  UNL1       -0.3794
     31 O          22.7272   70.5649   -2.2969 O.3     1  UNL1       -0.3775
     32 O          22.9858   71.1270    1.9309 O.3     1  UNL1       -0.3792
     33 C          21.8167   70.3902   -0.0503 C.3     1  UNL1        0.1718
     34 C          22.7296   71.1656   -1.0062 C.3     1  UNL1        0.1968
     35 C          21.7080   71.1300    1.2858 C.3     1  UNL1        0.1723
     36 C          22.2713   72.6239   -1.1318 C.3     1  UNL1        0.2706
     37 C          21.2858   72.5766    1.0387 C.3     1  UNL1        0.1830
     38 H          21.7316   68.6332    0.7967 H       1  UNL1        0.2105
     39 H          23.3094   71.0940   -2.8679 H       1  UNL1        0.2106
     40 H          23.5670   71.7539    1.4680 H       1  UNL1        0.2106
     41 O          20.8007   72.6398    3.3331 O.co2   1  UNL1       -0.5466
     42 O          21.6877   74.5247    2.4073 O.co2   1  UNL1       -0.5466
     43 C          21.2922   73.3725    2.3049 C.2     1  UNL1        0.0799
@<TRIPOS>UNITY_ATOM_ATTR
41 1
charge -1
@<TRIPOS>BOND
     1     1     4    1
     2     1    24    1
     3     1     2    1
     4     1     3    2
     5    25    28    1
     6    25    24    1
     7    25    26    1
     8    25    27    2
     9     6    11    1
    10     6    12    1
    11    29    36    1
    12    29    37    1
    13     7     9    1
    14     7    13    1
    15     8    10    1
    16     8    14    1
    17     4     5    1
    18    28    36    1
    19    30    33    1
    20    30    38    1
    21    31    34    1
    22    31    39    1
    23    32    35    1
    24    32    40    1
    25    41    43   ar
    26    15    19    2
    27    42    43   ar
    28    16    22    2
    29    17    12    1
    30    17    19   ar
    31    17    20   ar
    32    18    19   ar
    33    18    22   ar
    34    18    23    1
    35     9    10    1
    36     9    11    1
    37    10    12    1
    38    11     5    1
    39    33    34    1
    40    33    35    1
    41    34    36    1
    42    35    37    1
    43    37    43    1
    44    20    21   ar
    45    21    22   ar
@<TRIPOS>MOLECULE
UDP-glaA
 43 45 0 0 0
SMALL
GASTEIGER

@<TRIPOS>ATOM
      1 P          21.9375   71.0283   -2.8241 P.3     1  UNL1        0.2189
      2 O          23.0836   71.8229   -3.6441 O.3     1  UNL1       -0.4371
      3 O          21.9338   69.5407   -3.0221 O.2     1  UNL1       -0.5170
      4 O          20.5704   71.7941   -3.2239 O.3     1  UNL1       -0.3112
      5 C          19.5060   71.0371   -3.7746 C.3     1  UNL1        0.1811
      6 O          19.0031   73.1346   -4.8338 O.3     1  UNL1       -0.3308
      7 O          16.2187   72.0776   -5.1822 O.3     1  UNL1       -0.3794
      8 O          17.3086   71.7106   -7.6546 O.3     1  UNL1       -0.3779
      9 C          17.4637   71.3827   -5.2507 C.3     1  UNL1        0.1713
     10 C          18.1800   71.7145   -6.5428 C.3     1  UNL1        0.1895
     11 C          18.3953   71.9839   -4.2064 C.3     1  UNL1        0.1764
     12 C          18.7427   73.0942   -6.2466 C.3     1  UNL1        0.2383
     13 H          15.8153   71.8656   -4.3232 H       1  UNL1        0.2105
     14 H          16.9083   70.8258   -7.7097 H       1  UNL1        0.2106
     15 O          18.8834   74.2615   -8.8142 O.2     1  UNL1       -0.2464
     16 O          23.4860   74.0323   -8.8664 O.2     1  UNL1       -0.2670
     17 N          19.9642   73.3516   -6.9543 N.ar    1  UNL1       -0.2551
     18 N          21.1752   74.1461   -8.8387 N.ar    1  UNL1       -0.2743
     19 C          19.9254   73.9408   -8.2396 C.ar    1  UNL1        0.3323
     20 C          21.1840   73.0207   -6.3747 C.ar    1  UNL1        0.0869
     21 C          22.3672   73.2232   -6.9586 C.ar    1  UNL1        0.0795
     22 C          22.4145   73.8334   -8.3021 C.ar    1  UNL1        0.2626
     23 H          21.1716   74.5681   -9.7634 H       1  UNL1        0.1734
     24 O          22.1875   71.5041   -1.2989 O.3     1  UNL1       -0.2703
     25 P          22.3626   70.6508    0.0627 P.3     1  UNL1        0.2208
     26 O          23.8179   69.9669   -0.1125 O.3     1  UNL1       -0.4371
     27 O          21.2487   69.6790    0.3282 O.2     1  UNL1       -0.5170
     28 O          22.5688   71.7599    1.2166 O.3     1  UNL1       -0.2858
     29 O          21.8471   72.3775    3.3839 O.3     1  UNL1       -0.3226
     30 O          21.0359   75.8103    1.1847 O.3     1  UNL1       -0.3794
     31 O          20.4936   73.1718    0.0666 O.3     1  UNL1       -0.3775
     32 O          21.0200   75.0861    3.8502 O.3     1  UNL1       -0.3792
     33 C          21.7166   74.6239    1.5840 C.3     1  UNL1        0.1718
     34 C          20.7982   73.4059    1.4375 C.3     1  UNL1        0.1968
     35 C          22.1593   74.7738    3.0420 C.3     1  UNL1        0.1723
     36 C          21.4600   72.1529    2.0243 C.3     1  UNL1        0.2706
     37 C          22.7644   73.4602    3.5323 C.3     1  UNL1        0.1830
     38 H          21.6526   76.5539    1.2960 H       1  UNL1        0.2105
     39 H          19.9198   72.3884    0.0232 H       1  UNL1        0.2106
     40 H          20.4805   74.2832    3.9471 H       1  UNL1        0.2106
     41 O          24.3453   74.0001    5.1794 O.co2   1  UNL1       -0.5466
     42 O          22.3394   73.1854    5.8932 O.co2   1  UNL1       -0.5466
     43 C          23.0928   73.5195    4.9902 C.2     1  UNL1        0.0799
@<TRIPOS>UNITY_ATOM_ATTR
41 1
charge -1
@<TRIPOS>BOND
     1     1     4    1
     2     1    24    1
     3     1     2    1
     4     1     3    2
     5    25    28    1
     6    25    24    1
     7    25    26    1
     8    25    27    2
     9     6    11    1
    10     6    12    1
    11    29    36    1
    12    29    37    1
    13     7     9    1
    14     7    13    1
    15     8    10    1
    16     8    14    1
    17     4     5    1
    18    28    36    1
    19    30    33    1
    20    30    38    1
    21    31    34    1
    22    31    39    1
    23    32    35    1
    24    32    40    1
    25    41    43   ar
    26    15    19    2
    27    42    43   ar
    28    16    22    2
    29    17    12    1
    30    17    19   ar
    31    17    20   ar
    32    18    19   ar
    33    18    22   ar
    34    18    23    1
    35     9    10    1
    36     9    11    1
    37    10    12    1
    38    11     5    1
    39    33    34    1
    40    33    35    1
    41    34    36    1
    42    35    37    1
    43    37    43    1
    44    20    21   ar
    45    21    22   ar
@<TRIPOS>MOLECULE
UDP-glaA
 43 45 0 0 0
SMALL
GASTEIGER

@<TRIPOS>ATOM
      1 P          22.9044   71.9054   -3.4557 P.3     1  UNL1        0.2189
      2 O          23.8447   73.2215   -3.4873 O.3     1  UNL1       -0.4371
      3 O          23.6365   70.6088   -3.2692 O.2     1  UNL1       -0.5170
      4 O          22.0203   72.0256   -4.8046 O.3     1  UNL1       -0.3112
      5 C          21.8497   73.3048   -5.3910 C.3     1  UNL1        0.1811
      6 O          21.2619   72.6738   -7.6339 O.3     1  UNL1       -0.3308
      7 O          23.4909   74.4709   -8.5242 O.3     1  UNL1       -0.3794
      8 O          21.2793   76.0063   -8.9565 O.3     1  UNL1       -0.3779
      9 C          22.5830   74.6301   -7.4343 C.3     1  UNL1        0.1713
     10 C          21.2127   75.0222   -7.9453 C.3     1  UNL1        0.1895
     11 C          22.3189   73.2538   -6.8381 C.3     1  UNL1        0.1764
     12 C          20.6746   73.6962   -8.4555 C.3     1  UNL1        0.2383
     13 H          24.3420   74.1825   -8.1527 H       1  UNL1        0.2105
     14 H          21.7327   76.7810   -8.5817 H       1  UNL1        0.2106
     15 O          19.0501   72.1321  -10.1555 O.2     1  UNL1       -0.2464
     16 O          15.2009   73.4458   -7.9884 O.2     1  UNL1       -0.2670
     17 N          19.2455   73.6105   -8.3578 N.ar    1  UNL1       -0.2551
     18 N          17.1344   72.7878   -9.0756 N.ar    1  UNL1       -0.2743
     19 C          18.5231   72.7966   -9.2614 C.ar    1  UNL1        0.3323
     20 C          18.5736   74.3283   -7.3745 C.ar    1  UNL1        0.0869
     21 C          17.2491   74.3090   -7.2100 C.ar    1  UNL1        0.0795
     22 C          16.4211   73.4848   -8.1127 C.ar    1  UNL1        0.2626
     23 H          16.5946   72.2099   -9.7142 H       1  UNL1        0.1734
     24 O          21.8375   72.2502   -2.2904 O.3     1  UNL1       -0.2703
     25 P          21.0027   71.2854   -1.2979 P.3     1  UNL1        0.2208
     26 O          20.8516   72.1752    0.0443 O.3     1  UNL1       -0.4371
     27 O          21.6269   69.9367   -1.0807 O.2     1  UNL1       -0.5170
     28 O          19.5172   71.2390   -1.9266 O.3     1  UNL1       -0.2858
     29 O          18.7189   71.6742   -4.1112 O.3     1  UNL1       -0.3226
     30 O          15.6026   73.0831   -1.7485 O.3     1  UNL1       -0.3794
     31 O          18.3757   73.5714   -0.9887 O.3     1  UNL1       -0.3775
     32 O          16.0357   72.6390   -4.4401 O.3     1  UNL1       -0.3792
     33 C          16.6922   72.2561   -2.1473 C.3     1  UNL1        0.1718
     34 C          17.9763   73.0840   -2.2653 C.3     1  UNL1        0.1968
     35 C          16.3579   71.6127   -3.4958 C.3     1  UNL1        0.1723
     36 C          19.1131   72.2419   -2.8577 C.3     1  UNL1        0.2706
     37 C          17.5689   70.8361   -4.0082 C.3     1  UNL1        0.1830
     38 H          14.8126   72.5191   -1.6891 H       1  UNL1        0.2105
     39 H          19.1951   74.0796   -1.1119 H       1  UNL1        0.2106
     40 H          16.8572   73.0907   -4.6976 H       1  UNL1        0.2106
     41 O          16.6468   69.1304   -5.3289 O.co2   1  UNL1       -0.5466
     42 O          17.6998   70.8333   -6.4192 O.co2   1  UNL1       -0.5466
     43 C          17.3320   70.2980   -5.3835 C.2     1  UNL1        0.0799
@<TRIPOS>UNITY_ATOM_ATTR
41 1
charge -1
@<TRIPOS>BOND
     1     1     4    1
     2     1    24    1
     3     1     2    1
     4     1     3    2
     5    25    28    1
     6    25    24    1
     7    25    26    1
     8    25    27    2
     9     6    11    1
    10     6    12    1
    11    29    36    1
    12    29    37    1
    13     7     9    1
    14     7    13    1
    15     8    10    1
    16     8    14    1
    17     4     5    1
    18    28    36    1
    19    30    33    1
    20    30    38    1
    21    31    34    1
    22    31    39    1
    23    32    35    1
    24    32    40    1
    25    41    43   ar
    26    15    19    2
    27    42    43   ar
    28    16    22    2
    29    17    12    1
    30    17    19   ar
    31    17    20   ar
    32    18    19   ar
    33    18    22   ar
    34    18    23    1
    35     9    10    1
    36     9    11    1
    37    10    12    1
    38    11     5    1
    39    33    34    1
    40    33    35    1
    41    34    36    1
    42    35    37    1
    43    37    43    1
    44    20    21   ar
    45    21    22   ar
@<TRIPOS>MOLECULE
UDP-glaA
 43 45 0 0 0
SMALL
GASTEIGER

@<TRIPOS>ATOM
      1 P          21.6106   73.6422   -5.7597 P.3     1  UNL1        0.2189
      2 O          21.4825   75.1750   -6.2609 O.3     1  UNL1       -0.4371
      3 O          22.4768   72.7663   -6.6169 O.2     1  UNL1       -0.5170
      4 O          20.0769   73.1595   -5.5857 O.3     1  UNL1       -0.3112
      5 C          19.8140   71.7731   -5.4513 C.3     1  UNL1        0.1811
      6 O          17.5596   72.6043   -5.4200 O.3     1  UNL1       -0.3308
      7 O          16.7956   69.9496   -4.2539 O.3     1  UNL1       -0.3794
      8 O          16.0819   69.6778   -6.8717 O.3     1  UNL1       -0.3779
      9 C          17.7860   70.2533   -5.2360 C.3     1  UNL1        0.1713
     10 C          17.1296   70.5734   -6.5623 C.3     1  UNL1        0.1895
     11 C          18.4219   71.5866   -4.8650 C.3     1  UNL1        0.1764
     12 C          16.6371   71.9927   -6.3365 C.3     1  UNL1        0.2383
     13 H          17.2593   69.7902   -3.4142 H       1  UNL1        0.2105
     14 H          16.4592   68.7814   -6.8908 H       1  UNL1        0.2106
     15 O          18.6460   71.9307   -8.3203 O.2     1  UNL1       -0.2464
     16 O          16.4048   74.9849  -10.9447 O.2     1  UNL1       -0.2670
     17 N          16.6039   72.7608   -7.5482 N.ar    1  UNL1       -0.2551
     18 N          17.5289   73.4520   -9.6256 N.ar    1  UNL1       -0.2743
     19 C          17.6639   72.6579   -8.4792 C.ar    1  UNL1        0.3323
     20 C          15.5293   73.6051   -7.8045 C.ar    1  UNL1        0.0869
     21 C          15.4150   74.3554   -8.9026 C.ar    1  UNL1        0.0795
     22 C          16.4794   74.3070   -9.9245 C.ar    1  UNL1        0.2626
     23 H          18.2795   73.3946  -10.3086 H       1  UNL1        0.1734
     24 O          22.1166   73.8015   -4.2320 O.3     1  UNL1       -0.2703
     25 P          23.3544   73.1185   -3.4484 P.3     1  UNL1        0.2208
     26 O          24.6429   73.8975   -4.0393 O.3     1  UNL1       -0.4371
     27 O          23.4185   71.6239   -3.5818 O.2     1  UNL1       -0.5170
     28 O          23.2186   73.6470   -1.9298 O.3     1  UNL1       -0.2858
     29 O          21.4132   72.3190   -1.1706 O.3     1  UNL1       -0.3226
     30 O          22.8039   74.0024    2.3665 O.3     1  UNL1       -0.3794
     31 O          22.6332   75.5997   -0.0677 O.3     1  UNL1       -0.3775
     32 O          20.9765   72.0574    1.6542 O.3     1  UNL1       -0.3792
     33 C          22.8532   73.4540    1.0523 C.3     1  UNL1        0.1718
     34 C          22.0371   74.3156    0.0828 C.3     1  UNL1        0.1968
     35 C          22.2910   72.0303    1.0884 C.3     1  UNL1        0.1723
     36 C          21.9418   73.6436   -1.2927 C.3     1  UNL1        0.2706
     37 C          22.2032   71.4771   -0.3323 C.3     1  UNL1        0.1830
     38 H          23.3304   73.4251    2.9453 H       1  UNL1        0.2105
     39 H          22.0889   76.1041   -0.6955 H       1  UNL1        0.2106
     40 H          20.3658   72.4350    0.9987 H       1  UNL1        0.2106
     41 O          21.9172   69.3953    0.7107 O.co2   1  UNL1       -0.5466
     42 O          20.7582   69.7577   -1.2186 O.co2   1  UNL1       -0.5466
     43 C          21.5388   70.1374   -0.3578 C.2     1  UNL1        0.0799
@<TRIPOS>UNITY_ATOM_ATTR
41 1
charge -1
@<TRIPOS>BOND
     1     1     4    1
     2     1    24    1
     3     1     2    1
     4     1     3    2
     5    25    28    1
     6    25    24    1
     7    25    26    1
     8    25    27    2
     9     6    11    1
    10     6    12    1
    11    29    36    1
    12    29    37    1
    13     7     9    1
    14     7    13    1
    15     8    10    1
    16     8    14    1
    17     4     5    1
    18    28    36    1
    19    30    33    1
    20    30    38    1
    21    31    34    1
    22    31    39    1
    23    32    35    1
    24    32    40    1
    25    41    43   ar
    26    15    19    2
    27    42    43   ar
    28    16    22    2
    29    17    12    1
    30    17    19   ar
    31    17    20   ar
    32    18    19   ar
    33    18    22   ar
    34    18    23    1
    35     9    10    1
    36     9    11    1
    37    10    12    1
    38    11     5    1
    39    33    34    1
    40    33    35    1
    41    34    36    1
    42    35    37    1
    43    37    43    1
    44    20    21   ar
    45    21    22   ar
@<TRIPOS>MOLECULE
UDP-glaA
 43 45 0 0 0
SMALL
GASTEIGER

@<TRIPOS>ATOM
      1 P          19.7037   71.8748   -4.5145 P.3     1  UNL1        0.2189
      2 O          19.5663   70.3258   -4.0683 O.3     1  UNL1       -0.4371
      3 O          18.9339   72.8475   -3.6700 O.2     1  UNL1       -0.5170
      4 O          19.3310   71.8616   -6.0882 O.3     1  UNL1       -0.3112
      5 C          18.0209   71.4788   -6.4709 C.3     1  UNL1        0.1811
      6 O          18.2500   73.7771   -7.1338 O.3     1  UNL1       -0.3308
      7 O          15.8114   73.3383   -8.8226 O.3     1  UNL1       -0.3794
      8 O          17.8342   73.1773  -10.6442 O.3     1  UNL1       -0.3779
      9 C          16.8823   72.4403   -8.5320 C.3     1  UNL1        0.1713
     10 C          18.1233   72.8353   -9.3044 C.3     1  UNL1        0.1895
     11 C          17.3153   72.6764   -7.0910 C.3     1  UNL1        0.1764
     12 C          18.6347   74.0166   -8.4976 C.3     1  UNL1        0.2383
     13 H          15.0523   73.0702   -8.2773 H       1  UNL1        0.2105
     14 H          17.4116   72.4053  -11.0586 H       1  UNL1        0.2106
     15 O          20.3969   71.9386   -9.2404 O.2     1  UNL1       -0.2464
     16 O          24.0944   74.6388   -8.7149 O.2     1  UNL1       -0.2670
     17 N          20.0621   74.1489   -8.5640 N.ar    1  UNL1       -0.2551
     18 N          22.2370   73.2844   -8.9777 N.ar    1  UNL1       -0.2743
     19 C          20.8571   73.0436   -8.9476 C.ar    1  UNL1        0.3323
     20 C          20.6609   75.3641   -8.2506 C.ar    1  UNL1        0.0869
     21 C          21.9781   75.5779   -8.2846 C.ar    1  UNL1        0.0795
     22 C          22.8789   74.4751   -8.6743 C.ar    1  UNL1        0.2626
     23 H          22.8282   72.5037   -9.2502 H       1  UNL1        0.1734
     24 O          21.3038   72.1089   -4.5223 O.3     1  UNL1       -0.2703
     25 P          22.4274   71.7910   -3.4047 P.3     1  UNL1        0.2208
     26 O          23.7303   72.5761   -3.9544 O.3     1  UNL1       -0.4371
     27 O          22.6469   70.3270   -3.1510 O.2     1  UNL1       -0.5170
     28 O          21.9623   72.6300   -2.1071 O.3     1  UNL1       -0.2858
     29 O          21.4950   70.9861   -0.4705 O.3     1  UNL1       -0.3226
     30 O          20.9621   74.5142    1.6620 O.3     1  UNL1       -0.3794
     31 O          20.0021   74.2823   -1.0822 O.3     1  UNL1       -0.3775
     32 O          21.0594   71.8154    2.2426 O.3     1  UNL1       -0.3792
     33 C          21.5142   73.6187    0.7010 C.3     1  UNL1        0.1718
     34 C          20.4391   73.1774   -0.2978 C.3     1  UNL1        0.1968
     35 C          22.0837   72.3989    1.4306 C.3     1  UNL1        0.1723
     36 C          20.9786   72.0846   -1.2291 C.3     1  UNL1        0.2706
     37 C          22.5518   71.3632    0.4107 C.3     1  UNL1        0.1830
     38 H          21.6755   74.7647    2.2735 H       1  UNL1        0.2105
     39 H          19.3313   73.9535   -1.7040 H       1  UNL1        0.2106
     40 H          20.4308   71.3536    1.6623 H       1  UNL1        0.2106
     41 O          22.7828   69.0327    0.2717 O.co2   1  UNL1       -0.5466
     42 O          23.4893   70.0332    2.1945 O.co2   1  UNL1       -0.5466
     43 C          22.9967   70.1006    1.0777 C.2     1  UNL1        0.0799
@<TRIPOS>UNITY_ATOM_ATTR
41 1
charge -1
@<TRIPOS>BOND
     1     1     4    1
     2     1    24    1
     3     1     2    1
     4     1     3    2
     5    25    28    1
     6    25    24    1
     7    25    26    1
     8    25    27    2
     9     6    11    1
    10     6    12    1
    11    29    36    1
    12    29    37    1
    13     7     9    1
    14     7    13    1
    15     8    10    1
    16     8    14    1
    17     4     5    1
    18    28    36    1
    19    30    33    1
    20    30    38    1
    21    31    34    1
    22    31    39    1
    23    32    35    1
    24    32    40    1
    25    41    43   ar
    26    15    19    2
    27    42    43   ar
    28    16    22    2
    29    17    12    1
    30    17    19   ar
    31    17    20   ar
    32    18    19   ar
    33    18    22   ar
    34    18    23    1
    35     9    10    1
    36     9    11    1
    37    10    12    1
    38    11     5    1
    39    33    34    1
    40    33    35    1
    41    34    36    1
    42    35    37    1
    43    37    43    1
    44    20    21   ar
    45    21    22   ar
@<TRIPOS>MOLECULE
UDP-glaA
 43 45 0 0 0
SMALL
GASTEIGER

@<TRIPOS>ATOM
      1 P          19.9261   70.8799   -4.1853 P.3     1  UNL1        0.2189
      2 O          20.5116   69.5594   -3.4568 O.3     1  UNL1       -0.4371
      3 O          18.7714   71.5313   -3.4821 O.2     1  UNL1       -0.5170
      4 O          19.6425   70.3950   -5.7019 O.3     1  UNL1       -0.3112
      5 C          19.8370   71.3214   -6.7569 C.3     1  UNL1        0.1811
      6 O          17.6056   70.9986   -7.5880 O.3     1  UNL1       -0.3308
      7 O          18.8203   71.0454  -10.3291 O.3     1  UNL1       -0.3794
      8 O          17.7860   73.5574  -10.0931 O.3     1  UNL1       -0.3779
      9 C          19.1810   71.7941   -9.1684 C.3     1  UNL1        0.1713
     10 C          18.1631   72.8846   -8.9096 C.3     1  UNL1        0.1895
     11 C          18.9993   70.8937   -7.9535 C.3     1  UNL1        0.1764
     12 C          17.0157   72.1050   -8.2901 C.3     1  UNL1        0.2383
     13 H          19.4775   70.3362  -10.4323 H       1  UNL1        0.2105
     14 H          18.5922   73.9359  -10.4841 H       1  UNL1        0.2106
     15 O          16.3384   71.2827   -5.6747 O.2     1  UNL1       -0.2464
     16 O          14.0871   75.2132   -4.8252 O.2     1  UNL1       -0.2670
     17 N          16.2541   72.8934   -7.3640 N.ar    1  UNL1       -0.2551
     18 N          15.2173   73.2402   -5.2536 N.ar    1  UNL1       -0.2743
     19 C          15.9675   72.3878   -6.0745 C.ar    1  UNL1        0.3323
     20 C          15.7991   74.1534   -7.7367 C.ar    1  UNL1        0.0869
     21 C          15.0854   74.9543   -6.9424 C.ar    1  UNL1        0.0795
     22 C          14.7424   74.5011   -5.5799 C.ar    1  UNL1        0.2626
     23 H          14.9989   72.8971   -4.3221 H       1  UNL1        0.1734
     24 O          21.2345   71.8173   -4.3424 O.3     1  UNL1       -0.2703
     25 P          22.5944   71.8941   -3.4723 P.3     1  UNL1        0.2208
     26 O          23.5402   72.8717   -4.3474 O.3     1  UNL1       -0.4371
     27 O          23.2035   70.5568   -3.1620 O.2     1  UNL1       -0.5170
     28 O          22.1994   72.7645   -2.1721 O.3     1  UNL1       -0.2858
     29 O          21.5161   71.1559   -0.5768 O.3     1  UNL1       -0.3226
     30 O          21.3624   74.6814    1.6202 O.3     1  UNL1       -0.3794
     31 O          20.4282   74.6150   -1.1418 O.3     1  UNL1       -0.3775
     32 O          21.1346   71.9793    2.1463 O.3     1  UNL1       -0.3792
     33 C          21.8224   73.7457    0.6490 C.3     1  UNL1        0.1718
     34 C          20.7201   73.4520   -0.3743 C.3     1  UNL1        0.1968
     35 C          22.2334   72.4542    1.3614 C.3     1  UNL1        0.1723
     36 C          21.1441   72.3214   -1.3200 C.3     1  UNL1        0.2706
     37 C          22.5947   71.3902    0.3272 C.3     1  UNL1        0.1830
     38 H          22.0898   74.8352    2.2470 H       1  UNL1        0.2105
     39 H          19.7342   74.3787   -1.7800 H       1  UNL1        0.2106
     40 H          20.4663   71.6051    1.5475 H       1  UNL1        0.2106
     41 O          22.3760   69.0564    0.2312 O.co2   1  UNL1       -0.5466
     42 O          23.4815   69.9225    2.0269 O.co2   1  UNL1       -0.5466
     43 C          22.8780   70.0719    0.9744 C.2     1  UNL1        0.0799
@<TRIPOS>UNITY_ATOM_ATTR
41 1
charge -1
@<TRIPOS>BOND
     1     1     4    1
     2     1    24    1
     3     1     2    1
     4     1     3    2
     5    25    28    1
     6    25    24    1
     7    25    26    1
     8    25    27    2
     9     6    11    1
    10     6    12    1
    11    29    36    1
    12    29    37    1
    13     7     9    1
    14     7    13    1
    15     8    10    1
    16     8    14    1
    17     4     5    1
    18    28    36    1
    19    30    33    1
    20    30    38    1
    21    31    34    1
    22    31    39    1
    23    32    35    1
    24    32    40    1
    25    41    43   ar
    26    15    19    2
    27    42    43   ar
    28    16    22    2
    29    17    12    1
    30    17    19   ar
    31    17    20   ar
    32    18    19   ar
    33    18    22   ar
    34    18    23    1
    35     9    10    1
    36     9    11    1
    37    10    12    1
    38    11     5    1
    39    33    34    1
    40    33    35    1
    41    34    36    1
    42    35    37    1
    43    37    43    1
    44    20    21   ar
    45    21    22   ar
@<TRIPOS>MOLECULE
UDP-glaA
 43 45 0 0 0
SMALL
GASTEIGER

@<TRIPOS>ATOM
      1 P          17.0149   70.6351   -5.6911 P.3     1  UNL1        0.2189
      2 O          16.4523   69.1251   -5.8343 O.3     1  UNL1       -0.4371
      3 O          16.0021   71.7142   -5.9399 O.2     1  UNL1       -0.5170
      4 O          18.3170   70.6585   -6.6500 O.3     1  UNL1       -0.3112
      5 C          18.1241   70.6683   -8.0542 C.3     1  UNL1        0.1811
      6 O          18.2630   72.4925   -9.6121 O.3     1  UNL1       -0.3308
      7 O          20.7889   73.2663   -8.1935 O.3     1  UNL1       -0.3794
      8 O          18.9650   75.0063   -7.1536 O.3     1  UNL1       -0.3779
      9 C          19.5870   72.7111   -7.6598 C.3     1  UNL1        0.1713
     10 C          18.4952   73.7596   -7.6233 C.3     1  UNL1        0.1895
     11 C          19.0389   71.7153   -8.6735 C.3     1  UNL1        0.1764
     12 C          18.0577   73.8105   -9.0773 C.3     1  UNL1        0.2383
     13 H          21.4458   72.5504   -8.2340 H       1  UNL1        0.2105
     14 H          19.3261   74.8657   -6.2615 H       1  UNL1        0.2106
     15 O          16.8340   74.5017  -11.5269 O.2     1  UNL1       -0.2464
     16 O          12.7408   75.1471   -9.5100 O.2     1  UNL1       -0.2670
     17 N          16.6741   74.1629   -9.2214 N.ar    1  UNL1       -0.2551
     18 N          14.7967   74.8231  -10.5208 N.ar    1  UNL1       -0.2743
     19 C          16.1586   74.4947  -10.4961 C.ar    1  UNL1        0.3323
     20 C          15.8428   74.1775   -8.1069 C.ar    1  UNL1        0.0869
     21 C          14.5462   74.4924   -8.1469 C.ar    1  UNL1        0.0795
     22 C          13.9299   74.8521   -9.4393 C.ar    1  UNL1        0.2626
     23 H          14.4046   75.0657  -11.4266 H       1  UNL1        0.1734
     24 O          17.6569   70.6434   -4.2068 O.3     1  UNL1       -0.2703
     25 P          18.6763   69.6162   -3.4868 P.3     1  UNL1        0.2208
     26 O          18.8276   68.4238   -4.5691 O.3     1  UNL1       -0.4371
     27 O          18.2353   69.1644   -2.1241 O.2     1  UNL1       -0.5170
     28 O          20.1020   70.3718   -3.5096 O.3     1  UNL1       -0.2858
     29 O          20.6140   71.2280   -1.3639 O.3     1  UNL1       -0.3226
     30 O          23.7809   72.6529   -3.6485 O.3     1  UNL1       -0.3794
     31 O          21.0648   72.6636   -4.7110 O.3     1  UNL1       -0.3775
     32 O          23.1222   72.5658   -0.9674 O.3     1  UNL1       -0.3792
     33 C          22.7558   71.7627   -3.2158 C.3     1  UNL1        0.1718
     34 C          21.3813   72.4282   -3.3431 C.3     1  UNL1        0.1968
     35 C          23.0181   71.3769   -1.7575 C.3     1  UNL1        0.1723
     36 C          20.2912   71.5463   -2.7216 C.3     1  UNL1        0.2706
     37 C          21.8556   70.5377   -1.2317 C.3     1  UNL1        0.1830
     38 H          24.6312   72.1920   -3.5484 H       1  UNL1        0.2105
     39 H          20.1850   73.0757   -4.7419 H       1  UNL1        0.2106
     40 H          22.2328   72.9424   -0.8572 H       1  UNL1        0.2106
     41 O          22.7172   69.1086    0.4173 O.co2   1  UNL1       -0.5466
     42 O          21.5576   70.9370    1.1309 O.co2   1  UNL1       -0.5466
     43 C          22.0069   70.2466    0.2276 C.2     1  UNL1        0.0799
@<TRIPOS>UNITY_ATOM_ATTR
41 1
charge -1
@<TRIPOS>BOND
     1     1     4    1
     2     1    24    1
     3     1     2    1
     4     1     3    2
     5    25    28    1
     6    25    24    1
     7    25    26    1
     8    25    27    2
     9     6    11    1
    10     6    12    1
    11    29    36    1
    12    29    37    1
    13     7     9    1
    14     7    13    1
    15     8    10    1
    16     8    14    1
    17     4     5    1
    18    28    36    1
    19    30    33    1
    20    30    38    1
    21    31    34    1
    22    31    39    1
    23    32    35    1
    24    32    40    1
    25    41    43   ar
    26    15    19    2
    27    42    43   ar
    28    16    22    2
    29    17    12    1
    30    17    19   ar
    31    17    20   ar
    32    18    19   ar
    33    18    22   ar
    34    18    23    1
    35     9    10    1
    36     9    11    1
    37    10    12    1
    38    11     5    1
    39    33    34    1
    40    33    35    1
    41    34    36    1
    42    35    37    1
    43    37    43    1
    44    20    21   ar
    45    21    22   ar
@<TRIPOS>MOLECULE
UDP-glaA
 43 45 0 0 0
SMALL
GASTEIGER

@<TRIPOS>ATOM
      1 P          20.0302   70.1466   -2.3730 P.3     1  UNL1        0.2189
      2 O          21.2586   69.4493   -3.1618 O.3     1  UNL1       -0.4371
      3 O          18.8670   69.2425   -2.0869 O.2     1  UNL1       -0.5170
      4 O          19.6981   71.4619   -3.2535 O.3     1  UNL1       -0.3112
      5 C          18.3715   71.6503   -3.7160 C.3     1  UNL1        0.1811
      6 O          16.8471   71.1318   -5.4997 O.3     1  UNL1       -0.3308
      7 O          19.2787   70.6213   -7.1785 O.3     1  UNL1       -0.3794
      8 O          18.5147   73.1134   -7.9793 O.3     1  UNL1       -0.3779
      9 C          19.0735   71.6004   -6.1602 C.3     1  UNL1        0.1713
     10 C          18.1750   72.7075   -6.6696 C.3     1  UNL1        0.1895
     11 C          18.2168   70.9712   -5.0694 C.3     1  UNL1        0.1764
     12 C          16.8029   72.0595   -6.5965 C.3     1  UNL1        0.2383
     13 H          19.8260   69.9148   -6.7952 H       1  UNL1        0.2105
     14 H          19.4401   73.4125   -7.9623 H       1  UNL1        0.2106
     15 O          15.4381   73.4690   -8.6277 O.2     1  UNL1       -0.2464
     16 O          12.8109   75.6993   -5.5679 O.2     1  UNL1       -0.2670
     17 N          15.7578   73.0138   -6.3592 N.ar    1  UNL1       -0.2551
     18 N          14.1311   74.5791   -7.1026 N.ar    1  UNL1       -0.2743
     19 C          15.1372   73.6676   -7.4492 C.ar    1  UNL1        0.3323
     20 C          15.3574   73.2940   -5.0574 C.ar    1  UNL1        0.0869
     21 C          14.3962   74.1653   -4.7433 C.ar    1  UNL1        0.0795
     22 C          13.6985   74.8913   -5.8231 C.ar    1  UNL1        0.2626
     23 H          13.6714   75.0614   -7.8702 H       1  UNL1        0.1734
     24 O          20.7453   70.7605   -1.0588 O.3     1  UNL1       -0.2703
     25 P          22.1200   70.3539   -0.3123 P.3     1  UNL1        0.2208
     26 O          23.2573   70.7264   -1.4004 O.3     1  UNL1       -0.4371
     27 O          22.1631   68.9312    0.1673 O.2     1  UNL1       -0.5170
     28 O          22.2936   71.4560    0.8536 O.3     1  UNL1       -0.2858
     29 O          20.9818   72.6263    2.4375 O.3     1  UNL1       -0.3226
     30 O          23.1596   75.6955    0.6723 O.3     1  UNL1       -0.3794
     31 O          22.0635   73.5338   -0.9498 O.3     1  UNL1       -0.3775
     32 O          21.4573   75.4294    2.8313 O.3     1  UNL1       -0.3792
     33 C          22.8758   74.3923    1.1738 C.3     1  UNL1        0.1718
     34 C          21.7044   73.7684    0.4077 C.3     1  UNL1        0.1968
     35 C          22.5314   74.4985    2.6619 C.3     1  UNL1        0.1723
     36 C          21.2806   72.4416    1.0499 C.3     1  UNL1        0.2706
     37 C          22.0863   73.1343    3.1842 C.3     1  UNL1        0.1830
     38 H          23.9039   76.0521    1.1866 H       1  UNL1        0.2105
     39 H          21.2966   73.1310   -1.3907 H       1  UNL1        0.2106
     40 H          20.6350   75.0114    2.5243 H       1  UNL1        0.2106
     41 O          20.3041   73.5512    4.6517 O.co2   1  UNL1       -0.5466
     42 O          22.3128   73.0118    5.5850 O.co2   1  UNL1       -0.5466
     43 C          21.6163   73.2178    4.6017 C.2     1  UNL1        0.0799
@<TRIPOS>UNITY_ATOM_ATTR
41 1
charge -1
@<TRIPOS>BOND
     1     1     4    1
     2     1    24    1
     3     1     2    1
     4     1     3    2
     5    25    28    1
     6    25    24    1
     7    25    26    1
     8    25    27    2
     9     6    11    1
    10     6    12    1
    11    29    36    1
    12    29    37    1
    13     7     9    1
    14     7    13    1
    15     8    10    1
    16     8    14    1
    17     4     5    1
    18    28    36    1
    19    30    33    1
    20    30    38    1
    21    31    34    1
    22    31    39    1
    23    32    35    1
    24    32    40    1
    25    41    43   ar
    26    15    19    2
    27    42    43   ar
    28    16    22    2
    29    17    12    1
    30    17    19   ar
    31    17    20   ar
    32    18    19   ar
    33    18    22   ar
    34    18    23    1
    35     9    10    1
    36     9    11    1
    37    10    12    1
    38    11     5    1
    39    33    34    1
    40    33    35    1
    41    34    36    1
    42    35    37    1
    43    37    43    1
    44    20    21   ar
    45    21    22   ar
