@<TRIPOS>MOLECULE
GDU
 43 45 0 0 0
SMALL
GASTEIGER

@<TRIPOS>ATOM
      1 P          20.7088   71.2256   -2.2112 P.3     1  UNL1        0.2189
      2 O          21.9861   70.6355   -2.6693 O.2     1  UNL1       -0.5170
      3 O          20.8169   72.8318   -2.2455 O.3     1  UNL1       -0.4371
      4 O          19.5179   70.7471   -3.1805 O.3     1  UNL1       -0.3112
      5 C          18.2930   71.0358   -2.5047 C.3     1  UNL1        0.1811
      6 C          16.8370   70.5815   -5.7607 C.3     1  UNL1        0.2383
      7 C          16.8668   69.1588   -5.1458 C.3     1  UNL1        0.1895
      8 O          15.7808   68.3688   -5.6354 O.3     1  UNL1       -0.3779
      9 C          16.6973   69.4551   -3.6330 C.3     1  UNL1        0.1713
     10 C          17.1273   70.9268   -3.4894 C.3     1  UNL1        0.1764
     11 O          17.5412   71.3833   -4.7888 O.3     1  UNL1       -0.3308
     12 O          15.3340   69.2846   -3.2402 O.3     1  UNL1       -0.3794
     13 H          15.8569   67.5001   -5.2167 H       1  UNL1        0.2106
     14 H          15.1075   68.3599   -3.4087 H       1  UNL1        0.2105
     15 N          17.5322   70.6037   -7.0487 N.ar    1  UNL1       -0.2551
     16 C          16.8260   70.5118   -8.1894 C.ar    1  UNL1        0.3323
     17 N          17.4404   70.5334   -9.3868 N.ar    1  UNL1       -0.2743
     18 C          18.7812   70.6381   -9.4613 C.ar    1  UNL1        0.2626
     19 C          19.5386   70.7299   -8.2679 C.ar    1  UNL1        0.0795
     20 C          18.8967   70.7102   -7.0804 C.ar    1  UNL1        0.0869
     21 O          15.6158   70.4174   -8.1381 O.2     1  UNL1       -0.2464
     22 O          19.3387   70.6529  -10.5445 O.2     1  UNL1       -0.2670
     23 H          16.9146   70.4703  -10.2000 H       1  UNL1        0.1734
     24 O          20.4045   70.7417   -0.7059 O.3     1  UNL1       -0.2703
     25 P          21.7312   71.0363    0.1561 P.3     1  UNL1        0.2208
     26 O          21.8956   69.9841    1.1831 O.2     1  UNL1       -0.5170
     27 O          23.0139   71.0400   -0.8179 O.3     1  UNL1       -0.4371
     28 O          21.5991   72.4712    0.8729 O.3     1  UNL1       -0.2858
     29 C          22.2733   72.3717    2.1280 C.3     1  UNL1        0.2704
     30 C          21.4378   73.0571    3.2104 C.3     1  UNL1        0.1967
     31 C          21.2281   74.5244    2.8240 C.3     1  UNL1        0.1715
     32 C          22.5964   75.1609    2.5554 C.3     1  UNL1        0.1694
     33 C          23.3437   74.3163    1.5204 C.3     1  UNL1        0.1761
     34 O          20.1718   72.4045    3.3228 O.3     1  UNL1       -0.3775
     35 O          20.5766   75.2140    3.8929 O.3     1  UNL1       -0.3794
     36 O          23.3467   75.2111    3.7698 O.3     1  UNL1       -0.3794
     37 O          23.5494   73.0000    2.0311 O.3     1  UNL1       -0.3258
     38 H          20.3522   71.4846    3.5597 H       1  UNL1        0.2106
     39 H          19.7289   74.7739    4.0343 H       1  UNL1        0.2105
     40 H          22.8369   75.7464    4.3917 H       1  UNL1        0.2105
     41 C          24.6980   74.9622    1.2194 C.3     1  UNL1        0.1693
     42 O          24.8126   75.1939   -0.1857 O.3     1  UNL1       -0.3794
     43 H          25.6773   75.6013   -0.3326 H       1  UNL1        0.2105
@<TRIPOS>BOND
     1    15    16   ar
     2    15    20   ar
     3    15     6    1
     4    16    17   ar
     5    16    21    2
     6    17    18   ar
     7    17    23    1
     8    18    19   ar
     9    18    22    2
    10    19    20   ar
    11     6     7    1
    12     6    11    1
    13     7     8    1
    14     7     9    1
    15     8    13    1
    16     9    10    1
    17     9    12    1
    18    10    11    1
    19    10     5    1
    20    12    14    1
    21     5     4    1
    22     4     1    1
    23     1     2    2
    24     1     3    1
    25     1    24    1
    26    24    25    1
    27    25    26    2
    28    25    27    1
    29    25    28    1
    30    28    29    1
    31    29    30    1
    32    29    37    1
    33    30    31    1
    34    30    34    1
    35    31    32    1
    36    31    35    1
    37    32    33    1
    38    32    36    1
    39    33    41    1
    40    33    37    1
    41    41    42    1
    42    34    38    1
    43    35    39    1
    44    36    40    1
    45    42    43    1
@<TRIPOS>MOLECULE
GDU
 43 45 0 0 0
SMALL
GASTEIGER

@<TRIPOS>ATOM
      1 P          20.4072   71.8037   -1.2126 P.3     1  UNL1        0.2189
      2 O          21.0878   70.4951   -1.3295 O.2     1  UNL1       -0.5170
      3 O          21.0980   72.8591   -2.2137 O.3     1  UNL1       -0.4371
      4 O          18.8541   71.6376   -1.5964 O.3     1  UNL1       -0.3112
      5 C          18.7528   70.4719   -2.4158 C.3     1  UNL1        0.1811
      6 C          17.0713   70.4805   -5.5938 C.3     1  UNL1        0.2383
      7 C          16.9538   69.0173   -5.0954 C.3     1  UNL1        0.1895
      8 O          15.7503   68.4112   -5.5723 O.3     1  UNL1       -0.3779
      9 C          16.9082   69.2012   -3.5561 C.3     1  UNL1        0.1713
     10 C          17.5296   70.5914   -3.3266 C.3     1  UNL1        0.1764
     11 O          17.9251   71.1037   -4.6109 O.3     1  UNL1       -0.3308
     12 O          15.5583   69.1658   -3.0885 O.3     1  UNL1       -0.3794
     13 H          15.7383   67.5070   -5.2287 H       1  UNL1        0.2106
     14 H          15.2068   68.2937   -3.3134 H       1  UNL1        0.2105
     15 N          17.6906   70.5279   -6.9193 N.ar    1  UNL1       -0.2551
     16 C          16.9196   70.4548   -8.0186 C.ar    1  UNL1        0.3323
     17 N          17.4635   70.4997   -9.2491 N.ar    1  UNL1       -0.2743
     18 C          18.7976   70.6094   -9.3991 C.ar    1  UNL1        0.2626
     19 C          19.6227   70.6816   -8.2501 C.ar    1  UNL1        0.0795
     20 C          19.0508   70.6386   -7.0280 C.ar    1  UNL1        0.0869
     21 O          15.7146   70.3561   -7.8991 O.2     1  UNL1       -0.2464
     22 O          19.2913   70.6453  -10.5125 O.2     1  UNL1       -0.2670
     23 H          16.8916   70.4500  -10.0315 H       1  UNL1        0.1734
     24 O          20.5331   72.3398    0.3004 O.3     1  UNL1       -0.2703
     25 P          21.8378   71.6435    0.9351 P.3     1  UNL1        0.2208
     26 O          21.5788   70.2005    1.1346 O.2     1  UNL1       -0.5170
     27 O          23.0861   71.8308   -0.0654 O.3     1  UNL1       -0.4371
     28 O          22.1785   72.3293    2.3506 O.3     1  UNL1       -0.2858
     29 C          22.4165   73.7140    2.0942 C.3     1  UNL1        0.2704
     30 C          23.8130   74.0911    2.5910 C.3     1  UNL1        0.1967
     31 C          23.9053   73.7951    4.0911 C.3     1  UNL1        0.1715
     32 C          22.7467   74.5031    4.8025 C.3     1  UNL1        0.1694
     33 C          21.4299   74.0928    4.1386 C.3     1  UNL1        0.1761
     34 O          24.7938   73.3250    1.8893 O.3     1  UNL1       -0.3775
     35 O          25.1508   74.2774    4.5999 O.3     1  UNL1       -0.3794
     36 O          22.9174   75.9176    4.7024 O.3     1  UNL1       -0.3794
     37 O          21.4347   74.4962    2.7700 O.3     1  UNL1       -0.3258
     38 H          24.6945   73.5369    0.9511 H       1  UNL1        0.2106
     39 H          25.8479   73.8154    4.1174 H       1  UNL1        0.2105
     40 H          23.7591   76.1286    5.1270 H       1  UNL1        0.2105
     41 C          20.2633   74.7677    4.8635 C.3     1  UNL1        0.1693
     42 O          19.4206   73.7690    5.4409 O.3     1  UNL1       -0.3794
     43 H          18.7003   74.2347    5.8876 H       1  UNL1        0.2105
@<TRIPOS>BOND
     1    15    16   ar
     2    15    20   ar
     3    15     6    1
     4    16    17   ar
     5    16    21    2
     6    17    18   ar
     7    17    23    1
     8    18    19   ar
     9    18    22    2
    10    19    20   ar
    11     6     7    1
    12     6    11    1
    13     7     8    1
    14     7     9    1
    15     8    13    1
    16     9    10    1
    17     9    12    1
    18    10    11    1
    19    10     5    1
    20    12    14    1
    21     5     4    1
    22     4     1    1
    23     1     2    2
    24     1     3    1
    25     1    24    1
    26    24    25    1
    27    25    26    2
    28    25    27    1
    29    25    28    1
    30    28    29    1
    31    29    30    1
    32    29    37    1
    33    30    31    1
    34    30    34    1
    35    31    32    1
    36    31    35    1
    37    32    33    1
    38    32    36    1
    39    33    41    1
    40    33    37    1
    41    41    42    1
    42    34    38    1
    43    35    39    1
    44    36    40    1
    45    42    43    1
@<TRIPOS>MOLECULE
GDU
 43 45 0 0 0
SMALL
GASTEIGER

@<TRIPOS>ATOM
      1 P          20.6328   71.0348   -3.0718 P.3     1  UNL1        0.2189
      2 O          21.2032   70.6948   -4.3941 O.2     1  UNL1       -0.5170
      3 O          20.2561   72.6000   -3.0363 O.3     1  UNL1       -0.4371
      4 O          19.3087   70.1582   -2.8166 O.3     1  UNL1       -0.3112
      5 C          18.2710   71.0714   -2.4563 C.3     1  UNL1        0.1811
      6 C          16.8269   70.5719   -5.7109 C.3     1  UNL1        0.2383
      7 C          16.8728   69.1549   -5.0839 C.3     1  UNL1        0.1895
      8 O          15.7974   68.3477   -5.5688 O.3     1  UNL1       -0.3779
      9 C          16.6968   69.4620   -3.5740 C.3     1  UNL1        0.1713
     10 C          17.1086   70.9400   -3.4421 C.3     1  UNL1        0.1764
     11 O          17.5194   71.3904   -4.7446 O.3     1  UNL1       -0.3308
     12 O          15.3349   69.2783   -3.1822 O.3     1  UNL1       -0.3794
     13 H          15.8832   67.4835   -5.1425 H       1  UNL1        0.2106
     14 H          15.1199   68.3495   -3.3433 H       1  UNL1        0.2105
     15 N          17.5242   70.5916   -6.9979 N.ar    1  UNL1       -0.2551
     16 C          16.8198   70.4986   -8.1395 C.ar    1  UNL1        0.3323
     17 N          17.4363   70.5179   -9.3360 N.ar    1  UNL1       -0.2743
     18 C          18.7772   70.6214   -9.4084 C.ar    1  UNL1        0.2626
     19 C          19.5327   70.7143   -8.2138 C.ar    1  UNL1        0.0795
     20 C          18.8888   70.6969   -7.0274 C.ar    1  UNL1        0.0869
     21 O          15.6095   70.4052   -8.0901 O.2     1  UNL1       -0.2464
     22 O          19.3365   70.6341  -10.4908 O.2     1  UNL1       -0.2670
     23 H          16.9117   70.4541  -10.1500 H       1  UNL1        0.1734
     24 O          21.7166   70.7190   -1.9237 O.3     1  UNL1       -0.2703
     25 P          23.0157   71.6109   -2.2503 P.3     1  UNL1        0.2208
     26 O          23.5455   72.1885   -0.9954 O.2     1  UNL1       -0.5170
     27 O          24.1438   70.6856   -2.9326 O.3     1  UNL1       -0.4371
     28 O          22.6134   72.7973   -3.2605 O.3     1  UNL1       -0.2858
     29 C          23.7813   73.1082   -4.0215 C.3     1  UNL1        0.2704
     30 C          24.1647   74.5708   -3.7911 C.3     1  UNL1        0.1967
     31 C          22.9932   75.4651   -4.2085 C.3     1  UNL1        0.1715
     32 C          22.5966   75.1136   -5.6468 C.3     1  UNL1        0.1694
     33 C          22.3299   73.6090   -5.7360 C.3     1  UNL1        0.1761
     34 O          24.4569   74.7768   -2.4078 O.3     1  UNL1       -0.3775
     35 O          23.3877   76.8370   -4.1383 O.3     1  UNL1       -0.3794
     36 O          23.6568   75.4694   -6.5353 O.3     1  UNL1       -0.3794
     37 O          23.5168   72.8893   -5.4053 O.3     1  UNL1       -0.3258
     38 H          25.1934   74.1902   -2.1879 H       1  UNL1        0.2106
     39 H          23.6390   77.0094   -3.2221 H       1  UNL1        0.2105
     40 H          23.7932   76.4211   -6.4414 H       1  UNL1        0.2105
     41 C          21.8997   73.2526   -7.1607 C.3     1  UNL1        0.1693
     42 O          23.0514   73.1910   -8.0039 O.3     1  UNL1       -0.3794
     43 H          22.7377   72.9636   -8.8900 H       1  UNL1        0.2105
@<TRIPOS>BOND
     1    15    16   ar
     2    15    20   ar
     3    15     6    1
     4    16    17   ar
     5    16    21    2
     6    17    18   ar
     7    17    23    1
     8    18    19   ar
     9    18    22    2
    10    19    20   ar
    11     6     7    1
    12     6    11    1
    13     7     8    1
    14     7     9    1
    15     8    13    1
    16     9    10    1
    17     9    12    1
    18    10    11    1
    19    10     5    1
    20    12    14    1
    21     5     4    1
    22     4     1    1
    23     1     2    2
    24     1     3    1
    25     1    24    1
    26    24    25    1
    27    25    26    2
    28    25    27    1
    29    25    28    1
    30    28    29    1
    31    29    30    1
    32    29    37    1
    33    30    31    1
    34    30    34    1
    35    31    32    1
    36    31    35    1
    37    32    33    1
    38    32    36    1
    39    33    41    1
    40    33    37    1
    41    41    42    1
    42    34    38    1
    43    35    39    1
    44    36    40    1
    45    42    43    1
@<TRIPOS>MOLECULE
GDU
 43 45 0 0 0
SMALL
GASTEIGER

@<TRIPOS>ATOM
      1 P          20.5678   71.2586   -1.4126 P.3     1  UNL1        0.2189
      2 O          20.5233   72.7335   -1.3014 O.2     1  UNL1       -0.5170
      3 O          21.2950   70.6443   -0.1139 O.3     1  UNL1       -0.4371
      4 O          19.0696   70.6821   -1.5118 O.3     1  UNL1       -0.3112
      5 C          19.0244   69.8440   -2.6677 C.3     1  UNL1        0.1811
      6 C          17.2462   70.3102   -5.7577 C.3     1  UNL1        0.2383
      7 C          16.9300   68.8504   -5.3432 C.3     1  UNL1        0.1895
      8 O          15.6325   68.4605   -5.7991 O.3     1  UNL1       -0.3779
      9 C          16.9695   68.9363   -3.7952 C.3     1  UNL1        0.1713
     10 C          17.7998   70.2019   -3.5117 C.3     1  UNL1        0.1764
     11 O          18.2195   70.7347   -4.7799 O.3     1  UNL1       -0.3308
     12 O          15.6478   69.0685   -3.2682 O.3     1  UNL1       -0.3794
     13 H          15.4983   67.5470   -5.5104 H       1  UNL1        0.2106
     14 H          15.1618   68.2744   -3.5286 H       1  UNL1        0.2105
     15 N          17.8160   70.3541   -7.1053 N.ar    1  UNL1       -0.2551
     16 C          17.0006   70.4282   -8.1720 C.ar    1  UNL1        0.3323
     17 N          17.4990   70.4734   -9.4216 N.ar    1  UNL1       -0.2743
     18 C          18.8299   70.4350   -9.6246 C.ar    1  UNL1        0.2626
     19 C          19.7008   70.3512   -8.5107 C.ar    1  UNL1        0.0795
     20 C          19.1746   70.3115   -7.2682 C.ar    1  UNL1        0.0869
     21 O          15.7978   70.4642   -8.0046 O.2     1  UNL1       -0.2464
     22 O          19.2818   70.4711  -10.7556 O.2     1  UNL1       -0.2670
     23 H          16.8959   70.5312  -10.1797 H       1  UNL1        0.1734
     24 O          21.3916   70.8456   -2.7329 O.3     1  UNL1       -0.2703
     25 P          22.6796   71.8082   -2.7995 P.3     1  UNL1        0.2208
     26 O          22.8854   72.4482   -1.4815 O.2     1  UNL1       -0.5170
     27 O          23.9801   70.9385   -3.1821 O.3     1  UNL1       -0.4371
     28 O          22.4461   72.9423   -3.9173 O.3     1  UNL1       -0.2858
     29 C          21.4769   72.4296   -4.8325 C.3     1  UNL1        0.2704
     30 C          21.9072   72.7532   -6.2641 C.3     1  UNL1        0.1967
     31 C          22.0416   74.2718   -6.4131 C.3     1  UNL1        0.1715
     32 C          20.7309   74.9263   -5.9622 C.3     1  UNL1        0.1694
     33 C          20.3906   74.4389   -4.5517 C.3     1  UNL1        0.1761
     34 O          23.1637   72.1308   -6.5384 O.3     1  UNL1       -0.3775
     35 O          22.2991   74.5992   -7.7802 O.3     1  UNL1       -0.3794
     36 O          19.6825   74.5665   -6.8631 O.3     1  UNL1       -0.3794
     37 O          20.2094   73.0237   -4.5620 O.3     1  UNL1       -0.3258
     38 H          23.0341   71.1793   -6.4259 H       1  UNL1        0.2106
     39 H          23.1230   74.1582   -8.0231 H       1  UNL1        0.2105
     40 H          19.9419   74.8872   -7.7367 H       1  UNL1        0.2105
     41 C          19.1009   75.1131   -4.0782 C.3     1  UNL1        0.1693
     42 O          18.9011   74.8361   -2.6910 O.3     1  UNL1       -0.3794
     43 H          18.0807   75.2782   -2.4327 H       1  UNL1        0.2105
@<TRIPOS>BOND
     1    15    16   ar
     2    15    20   ar
     3    15     6    1
     4    16    17   ar
     5    16    21    2
     6    17    18   ar
     7    17    23    1
     8    18    19   ar
     9    18    22    2
    10    19    20   ar
    11     6     7    1
    12     6    11    1
    13     7     8    1
    14     7     9    1
    15     8    13    1
    16     9    10    1
    17     9    12    1
    18    10    11    1
    19    10     5    1
    20    12    14    1
    21     5     4    1
    22     4     1    1
    23     1     2    2
    24     1     3    1
    25     1    24    1
    26    24    25    1
    27    25    26    2
    28    25    27    1
    29    25    28    1
    30    28    29    1
    31    29    30    1
    32    29    37    1
    33    30    31    1
    34    30    34    1
    35    31    32    1
    36    31    35    1
    37    32    33    1
    38    32    36    1
    39    33    41    1
    40    33    37    1
    41    41    42    1
    42    34    38    1
    43    35    39    1
    44    36    40    1
    45    42    43    1
@<TRIPOS>MOLECULE
GDU
 43 45 0 0 0
SMALL
GASTEIGER

@<TRIPOS>ATOM
      1 P          20.7360   73.0000   -2.9723 P.3     1  UNL1        0.2189
      2 O          20.2572   74.2344   -3.6330 O.2     1  UNL1       -0.5170
      3 O          20.5329   73.1301   -1.3802 O.3     1  UNL1       -0.4371
      4 O          19.8999   71.7394   -3.5188 O.3     1  UNL1       -0.3112
      5 C          18.7249   71.6412   -2.7123 C.3     1  UNL1        0.1811
      6 C          17.0942   70.7998   -5.8042 C.3     1  UNL1        0.2383
      7 C          17.1823   69.4579   -5.0330 C.3     1  UNL1        0.1895
      8 O          16.0834   68.6061   -5.3647 O.3     1  UNL1       -0.3779
      9 C          17.0941   69.9252   -3.5569 C.3     1  UNL1        0.1713
     10 C          17.5072   71.4079   -3.6083 C.3     1  UNL1        0.1764
     11 O          17.8391   71.7154   -4.9734 O.3     1  UNL1       -0.3308
     12 O          15.7582   69.7878   -3.0684 O.3     1  UNL1       -0.3794
     13 H          16.1975   67.7923   -4.8542 H       1  UNL1        0.2106
     14 H          15.5378   68.8477   -3.1162 H       1  UNL1        0.2105
     15 N          17.7147   70.6800   -7.1246 N.ar    1  UNL1       -0.2551
     16 C          16.9398   70.5833   -8.2193 C.ar    1  UNL1        0.3323
     17 N          17.4851   70.4757   -9.4453 N.ar    1  UNL1       -0.2743
     18 C          18.8235   70.4532   -9.5946 C.ar    1  UNL1        0.2626
     19 C          19.6523   70.5484   -8.4499 C.ar    1  UNL1        0.0795
     20 C          19.0793   70.6597   -7.2326 C.ar    1  UNL1        0.0869
     21 O          15.7308   70.6027   -8.1004 O.2     1  UNL1       -0.2464
     22 O          19.3180   70.3511  -10.7035 O.2     1  UNL1       -0.2670
     23 H          16.9106   70.4113  -10.2248 H       1  UNL1        0.1734
     24 O          22.2990   72.7904   -3.2972 O.3     1  UNL1       -0.2703
     25 P          22.8021   71.5571   -2.3939 P.3     1  UNL1        0.2208
     26 O          21.8123   70.4595   -2.4629 O.2     1  UNL1       -0.5170
     27 O          24.2224   71.0336   -2.9440 O.3     1  UNL1       -0.4371
     28 O          22.9641   72.0397   -0.8672 O.3     1  UNL1       -0.2858
     29 C          23.0500   70.8604   -0.0661 C.3     1  UNL1        0.2704
     30 C          21.8637   70.8124    0.8982 C.3     1  UNL1        0.1967
     31 C          21.8849   72.0664    1.7776 C.3     1  UNL1        0.1715
     32 C          23.2618   72.1755    2.4424 C.3     1  UNL1        0.1694
     33 C          24.3428   72.1220    1.3599 C.3     1  UNL1        0.1761
     34 O          20.6443   70.7678    0.1549 O.3     1  UNL1       -0.3775
     35 O          20.8715   71.9668    2.7804 O.3     1  UNL1       -0.3794
     36 O          23.4389   71.0913    3.3552 O.3     1  UNL1       -0.3794
     37 O          24.2713   70.8755    0.6693 O.3     1  UNL1       -0.3258
     38 H          20.6777   69.9686   -0.3881 H       1  UNL1        0.2106
     39 H          20.0273   71.8884    2.3183 H       1  UNL1        0.2105
     40 H          22.7352   71.1617    4.0133 H       1  UNL1        0.2105
     41 C          25.7208   72.2647    2.0102 C.3     1  UNL1        0.1693
     42 O          26.2258   70.9703    2.3429 O.3     1  UNL1       -0.3794
     43 H          27.0935   71.1042    2.7484 H       1  UNL1        0.2105
@<TRIPOS>BOND
     1    15    16   ar
     2    15    20   ar
     3    15     6    1
     4    16    17   ar
     5    16    21    2
     6    17    18   ar
     7    17    23    1
     8    18    19   ar
     9    18    22    2
    10    19    20   ar
    11     6     7    1
    12     6    11    1
    13     7     8    1
    14     7     9    1
    15     8    13    1
    16     9    10    1
    17     9    12    1
    18    10    11    1
    19    10     5    1
    20    12    14    1
    21     5     4    1
    22     4     1    1
    23     1     2    2
    24     1     3    1
    25     1    24    1
    26    24    25    1
    27    25    26    2
    28    25    27    1
    29    25    28    1
    30    28    29    1
    31    29    30    1
    32    29    37    1
    33    30    31    1
    34    30    34    1
    35    31    32    1
    36    31    35    1
    37    32    33    1
    38    32    36    1
    39    33    41    1
    40    33    37    1
    41    41    42    1
    42    34    38    1
    43    35    39    1
    44    36    40    1
    45    42    43    1
@<TRIPOS>MOLECULE
GDU
 43 45 0 0 0
SMALL
GASTEIGER

@<TRIPOS>ATOM
      1 P          15.9896   70.5162   -2.4823 P.3     1  UNL1        0.2189
      2 O          15.8796   69.2328   -3.2105 O.2     1  UNL1       -0.5170
      3 O          15.7161   71.7349   -3.4986 O.3     1  UNL1       -0.4371
      4 O          14.9056   70.5543   -1.2946 O.3     1  UNL1       -0.3112
      5 C          14.7060   69.2042   -0.8731 C.3     1  UNL1        0.1811
      6 C          12.0134   67.9778    1.1697 C.3     1  UNL1        0.2383
      7 C          12.2555   69.4241    1.6723 C.3     1  UNL1        0.1895
      8 O          11.0418   70.0070    2.1525 O.3     1  UNL1       -0.3779
      9 C          12.7403   70.1388    0.3840 C.3     1  UNL1        0.1713
     10 C          13.2334   68.9916   -0.5173 C.3     1  UNL1        0.1764
     11 O          13.0813   67.7673    0.2218 O.3     1  UNL1       -0.3308
     12 O          11.6603   70.8409   -0.2344 O.3     1  UNL1       -0.3794
     13 H          11.2603   70.9015    2.4491 H       1  UNL1        0.2106
     14 H          11.3575   71.5043    0.4004 H       1  UNL1        0.2105
     15 N          12.1090   67.0227    2.2749 N.ar    1  UNL1       -0.2551
     16 C          13.3165   66.5957    2.6847 C.ar    1  UNL1        0.3323
     17 N          13.4323   65.7205    3.7008 N.ar    1  UNL1       -0.2743
     18 C          12.3333   65.2485    4.3202 C.ar    1  UNL1        0.2626
     19 C          11.0545   65.6850    3.8955 C.ar    1  UNL1        0.0795
     20 C          10.9672   66.5665    2.8768 C.ar    1  UNL1        0.0869
     21 O          14.3169   67.0131    2.1360 O.2     1  UNL1       -0.2464
     22 O          12.4369   64.4526    5.2369 O.2     1  UNL1       -0.2670
     23 H          14.3119   65.4264    3.9863 H       1  UNL1        0.1734
     24 O          17.4698   70.6564   -1.8644 O.3     1  UNL1       -0.2703
     25 P          18.5002   70.2004   -3.0134 P.3     1  UNL1        0.2208
     26 O          19.8862   70.4506   -2.5602 O.2     1  UNL1       -0.5170
     27 O          18.3092   68.6294   -3.3125 O.3     1  UNL1       -0.4371
     28 O          18.2139   71.0398   -4.3564 O.3     1  UNL1       -0.2858
     29 C          18.8910   70.3668   -5.4186 C.3     1  UNL1        0.2704
     30 C          19.9001   71.3186   -6.0629 C.3     1  UNL1        0.1967
     31 C          19.1576   72.5505   -6.5896 C.3     1  UNL1        0.1715
     32 C          18.0231   72.0833   -7.5083 C.3     1  UNL1        0.1694
     33 C          17.1545   71.0743   -6.7530 C.3     1  UNL1        0.1761
     34 O          20.8674   71.7200   -5.0911 O.3     1  UNL1       -0.3775
     35 O          20.0621   73.3792   -7.3229 O.3     1  UNL1       -0.3794
     36 O          18.5744   71.4685   -8.6737 O.3     1  UNL1       -0.3794
     37 O          17.9398   69.9393   -6.3907 O.3     1  UNL1       -0.3258
     38 H          21.3041   70.9143   -4.7828 H       1  UNL1        0.2106
     39 H          20.7626   73.6386   -6.7111 H       1  UNL1        0.2105
     40 H          19.1165   72.1368   -9.1128 H       1  UNL1        0.2105
     41 C          15.9982   70.6270   -7.6501 C.3     1  UNL1        0.1693
     42 O          15.6638   71.6804   -8.5554 O.3     1  UNL1       -0.3794
     43 H          14.9335   71.3586   -9.1017 H       1  UNL1        0.2105
@<TRIPOS>BOND
     1    15    16   ar
     2    15    20   ar
     3    15     6    1
     4    16    17   ar
     5    16    21    2
     6    17    18   ar
     7    17    23    1
     8    18    19   ar
     9    18    22    2
    10    19    20   ar
    11     6     7    1
    12     6    11    1
    13     7     8    1
    14     7     9    1
    15     8    13    1
    16     9    10    1
    17     9    12    1
    18    10    11    1
    19    10     5    1
    20    12    14    1
    21     5     4    1
    22     4     1    1
    23     1     2    2
    24     1     3    1
    25     1    24    1
    26    24    25    1
    27    25    26    2
    28    25    27    1
    29    25    28    1
    30    28    29    1
    31    29    30    1
    32    29    37    1
    33    30    31    1
    34    30    34    1
    35    31    32    1
    36    31    35    1
    37    32    33    1
    38    32    36    1
    39    33    41    1
    40    33    37    1
    41    41    42    1
    42    34    38    1
    43    35    39    1
    44    36    40    1
    45    42    43    1
@<TRIPOS>MOLECULE
GDU
 43 45 0 0 0
SMALL
GASTEIGER

@<TRIPOS>ATOM
      1 P          23.4903   72.1301   -3.3039 P.3     1  UNL1        0.2189
      2 O          24.2700   72.9396   -4.2662 O.2     1  UNL1       -0.5170
      3 O          24.2711   70.7542   -3.0036 O.3     1  UNL1       -0.4371
      4 O          23.3071   72.9530   -1.9342 O.3     1  UNL1       -0.3112
      5 C          21.9361   72.8241   -1.5542 C.3     1  UNL1        0.1811
      6 C          23.2277   72.0448    1.7095 C.3     1  UNL1        0.2383
      7 C          22.5319   73.4190    1.8843 C.3     1  UNL1        0.1895
      8 O          22.0107   73.5620    3.2076 O.3     1  UNL1       -0.3779
      9 C          21.3848   73.3370    0.8438 C.3     1  UNL1        0.1713
     10 C          21.8491   72.2471   -0.1401 C.3     1  UNL1        0.1764
     11 O          23.1491   71.8058    0.2882 O.3     1  UNL1       -0.3308
     12 O          20.1612   72.9595    1.4780 O.3     1  UNL1       -0.3794
     13 H          21.5932   74.4337    3.2502 H       1  UNL1        0.2106
     14 H          19.9549   73.6501    2.1224 H       1  UNL1        0.2105
     15 N          24.6237   72.1119    2.1449 N.ar    1  UNL1       -0.2551
     16 C          25.3475   70.9827    2.2403 C.ar    1  UNL1        0.3323
     17 N          26.6340   71.0172    2.6347 N.ar    1  UNL1       -0.2743
     18 C          27.2170   72.1894    2.9513 C.ar    1  UNL1        0.2626
     19 C          26.4650   73.3863    2.8611 C.ar    1  UNL1        0.0795
     20 C          25.1779   73.3237    2.4587 C.ar    1  UNL1        0.0869
     21 O          24.8354   69.9178    1.9575 O.2     1  UNL1       -0.2464
     22 O          28.3800   72.2211    3.3130 O.2     1  UNL1       -0.2670
     23 H          27.1427   70.1928    2.6937 H       1  UNL1        0.1734
     24 O          22.0443   71.7992   -3.9302 O.3     1  UNL1       -0.2703
     25 P          21.8897   72.7049   -5.2514 P.3     1  UNL1        0.2208
     26 O          22.0495   74.1314   -4.8928 O.2     1  UNL1       -0.5170
     27 O          23.0208   72.2910   -6.3208 O.3     1  UNL1       -0.4371
     28 O          20.4333   72.4724   -5.8954 O.3     1  UNL1       -0.2858
     29 C          20.3963   71.1229   -6.3615 C.3     1  UNL1        0.2704
     30 C          19.8867   71.0959   -7.8033 C.3     1  UNL1        0.1967
     31 C          18.4898   71.7228   -7.8502 C.3     1  UNL1        0.1715
     32 C          17.5974   71.0078   -6.8295 C.3     1  UNL1        0.1694
     33 C          18.2803   71.0432   -5.4600 C.3     1  UNL1        0.1761
     34 O          20.7751   71.8400   -8.6390 O.3     1  UNL1       -0.3775
     35 O          17.9399   71.5726   -9.1608 O.3     1  UNL1       -0.3794
     36 O          17.3987   69.6527   -7.2348 O.3     1  UNL1       -0.3794
     37 O          19.5298   70.3574   -5.5274 O.3     1  UNL1       -0.3258
     38 H          21.6413   71.4153   -8.5732 H       1  UNL1        0.2106
     39 H          18.5378   72.0257   -9.7687 H       1  UNL1        0.2105
     40 H          16.9729   69.6794   -8.1015 H       1  UNL1        0.2105
     41 C          17.3814   70.3617   -4.4259 C.3     1  UNL1        0.1693
     42 O          16.0120   70.5668   -4.7775 O.3     1  UNL1       -0.3794
     43 H          15.4803   70.1222   -4.1030 H       1  UNL1        0.2105
@<TRIPOS>BOND
     1    15    16   ar
     2    15    20   ar
     3    15     6    1
     4    16    17   ar
     5    16    21    2
     6    17    18   ar
     7    17    23    1
     8    18    19   ar
     9    18    22    2
    10    19    20   ar
    11     6     7    1
    12     6    11    1
    13     7     8    1
    14     7     9    1
    15     8    13    1
    16     9    10    1
    17     9    12    1
    18    10    11    1
    19    10     5    1
    20    12    14    1
    21     5     4    1
    22     4     1    1
    23     1     2    2
    24     1     3    1
    25     1    24    1
    26    24    25    1
    27    25    26    2
    28    25    27    1
    29    25    28    1
    30    28    29    1
    31    29    30    1
    32    29    37    1
    33    30    31    1
    34    30    34    1
    35    31    32    1
    36    31    35    1
    37    32    33    1
    38    32    36    1
    39    33    41    1
    40    33    37    1
    41    41    42    1
    42    34    38    1
    43    35    39    1
    44    36    40    1
    45    42    43    1
@<TRIPOS>MOLECULE
GDU
 43 45 0 0 0
SMALL
GASTEIGER

@<TRIPOS>ATOM
      1 P          22.3809   72.3508   -1.1776 P.3     1  UNL1        0.2189
      2 O          23.1968   73.5588   -0.9238 O.2     1  UNL1       -0.5170
      3 O          21.0141   72.4388   -0.3308 O.3     1  UNL1       -0.4371
      4 O          22.0355   72.2557   -2.7456 O.3     1  UNL1       -0.3112
      5 C          23.0354   73.0068   -3.4359 C.3     1  UNL1        0.1811
      6 C          21.2504   72.0831   -6.4171 C.3     1  UNL1        0.2383
      7 C          21.0454   73.6152   -6.2998 C.3     1  UNL1        0.1895
      8 O          20.9142   74.2125   -7.5917 O.3     1  UNL1       -0.3779
      9 C          22.3602   74.0672   -5.6124 C.3     1  UNL1        0.1713
     10 C          22.8918   72.7863   -4.9428 C.3     1  UNL1        0.1764
     11 O          21.9373   71.7406   -5.1947 O.3     1  UNL1       -0.3308
     12 O          23.2889   74.5551   -6.5826 O.3     1  UNL1       -0.3794
     13 H          20.7897   75.1612   -7.4490 H       1  UNL1        0.2106
     14 H          22.8752   75.3189   -7.0070 H       1  UNL1        0.2105
     15 N          19.9619   71.3927   -6.4956 N.ar    1  UNL1       -0.2551
     16 C          19.4754   71.0229   -7.6934 C.ar    1  UNL1        0.3323
     17 N          18.2950   70.3838   -7.7929 N.ar    1  UNL1       -0.2743
     18 C          17.5737   70.1118   -6.6883 C.ar    1  UNL1        0.2626
     19 C          18.0711   70.5005   -5.4203 C.ar    1  UNL1        0.0795
     20 C          19.2597   71.1364   -5.3487 C.ar    1  UNL1        0.0869
     21 O          20.1149   71.2610   -8.6986 O.2     1  UNL1       -0.2464
     22 O          16.5029   69.5375   -6.7778 O.2     1  UNL1       -0.2670
     23 H          17.9610   70.1204   -8.6652 H       1  UNL1        0.1734
     24 O          23.2057   71.0430   -0.7283 O.3     1  UNL1       -0.2703
     25 P          23.0341   70.9082    0.8662 P.3     1  UNL1        0.2208
     26 O          21.7862   70.1725    1.1673 O.2     1  UNL1       -0.5170
     27 O          24.2903   70.1046    1.4748 O.3     1  UNL1       -0.4371
     28 O          22.9662   72.3746    1.5257 O.3     1  UNL1       -0.2858
     29 C          23.0280   72.1963    2.9414 C.3     1  UNL1        0.2704
     30 C          21.7915   72.8226    3.5879 C.3     1  UNL1        0.1967
     31 C          21.7429   74.3117    3.2320 C.3     1  UNL1        0.1715
     32 C          23.0791   74.9529    3.6233 C.3     1  UNL1        0.1694
     33 C          24.2187   74.1655    2.9719 C.3     1  UNL1        0.1761
     34 O          20.6158   72.1738    3.1001 O.3     1  UNL1       -0.3775
     35 O          20.6778   74.9417    3.9469 O.3     1  UNL1       -0.3794
     36 O          23.2242   74.9258    5.0440 O.3     1  UNL1       -0.3794
     37 O          24.2066   72.8198    3.4461 O.3     1  UNL1       -0.3258
     38 H          20.6926   71.2402    3.3397 H       1  UNL1        0.2106
     39 H          19.8617   74.5002    3.6795 H       1  UNL1        0.2105
     40 H          22.4843   75.4272    5.4105 H       1  UNL1        0.2105
     41 C          25.5562   74.8181    3.3285 C.3     1  UNL1        0.1693
     42 O          26.0633   74.2369    4.5310 O.3     1  UNL1       -0.3794
     43 H          26.9050   74.6741    4.7199 H       1  UNL1        0.2105
@<TRIPOS>BOND
     1    15    16   ar
     2    15    20   ar
     3    15     6    1
     4    16    17   ar
     5    16    21    2
     6    17    18   ar
     7    17    23    1
     8    18    19   ar
     9    18    22    2
    10    19    20   ar
    11     6     7    1
    12     6    11    1
    13     7     8    1
    14     7     9    1
    15     8    13    1
    16     9    10    1
    17     9    12    1
    18    10    11    1
    19    10     5    1
    20    12    14    1
    21     5     4    1
    22     4     1    1
    23     1     2    2
    24     1     3    1
    25     1    24    1
    26    24    25    1
    27    25    26    2
    28    25    27    1
    29    25    28    1
    30    28    29    1
    31    29    30    1
    32    29    37    1
    33    30    31    1
    34    30    34    1
    35    31    32    1
    36    31    35    1
    37    32    33    1
    38    32    36    1
    39    33    41    1
    40    33    37    1
    41    41    42    1
    42    34    38    1
    43    35    39    1
    44    36    40    1
    45    42    43    1
@<TRIPOS>MOLECULE
GDU
 43 45 0 0 0
SMALL
GASTEIGER

@<TRIPOS>ATOM
      1 P          23.6407   72.4454   -3.9160 P.3     1  UNL1        0.2189
      2 O          24.2029   71.1402   -3.5037 O.2     1  UNL1       -0.5170
      3 O          24.7132   73.6093   -3.6196 O.3     1  UNL1       -0.4371
      4 O          23.3050   72.4128   -5.4886 O.3     1  UNL1       -0.3112
      5 C          21.9461   72.8299   -5.6303 C.3     1  UNL1        0.1811
      6 C          19.1178   70.6328   -5.9472 C.3     1  UNL1        0.2383
      7 C          18.7631   71.8539   -6.8337 C.3     1  UNL1        0.1895
      8 O          17.9411   71.4625   -7.9356 O.3     1  UNL1       -0.3779
      9 C          20.1601   72.3170   -7.3229 C.3     1  UNL1        0.1713
     10 C          21.1353   71.7154   -6.2940 C.3     1  UNL1        0.1764
     11 O          20.3486   71.0286   -5.3052 O.3     1  UNL1       -0.3308
     12 O          20.4255   71.8074   -8.6312 O.3     1  UNL1       -0.3794
     13 H          17.7570   72.2642   -8.4448 H       1  UNL1        0.2106
     14 H          19.7483   72.1726   -9.2167 H       1  UNL1        0.2105
     15 N          18.0710   70.3933   -4.9524 N.ar    1  UNL1       -0.2551
     16 C          17.0017   69.6451   -5.2764 C.ar    1  UNL1        0.3323
     17 N          16.0269   69.4068   -4.3792 N.ar    1  UNL1       -0.2743
     18 C          16.1031   69.9256   -3.1386 C.ar    1  UNL1        0.2626
     19 C          17.2208   70.7205   -2.7850 C.ar    1  UNL1        0.0795
     20 C          18.1862   70.9402   -3.7027 C.ar    1  UNL1        0.0869
     21 O          16.9194   69.1700   -6.3916 O.2     1  UNL1       -0.2464
     22 O          15.2189   69.7144   -2.3273 O.2     1  UNL1       -0.2670
     23 H          15.2644   68.8610   -4.6289 H       1  UNL1        0.1734
     24 O          22.2929   72.7350   -3.0841 O.3     1  UNL1       -0.2703
     25 P          22.3531   71.8167   -1.7638 P.3     1  UNL1        0.2208
     26 O          21.3800   70.7093   -1.8886 O.2     1  UNL1       -0.5170
     27 O          23.8364   71.2110   -1.5988 O.3     1  UNL1       -0.4371
     28 O          21.9918   72.7070   -0.4727 O.3     1  UNL1       -0.2858
     29 C          22.8624   72.2863    0.5784 C.3     1  UNL1        0.2704
     30 C          22.0369   71.6603    1.7035 C.3     1  UNL1        0.1967
     31 C          21.0293   72.6935    2.2168 C.3     1  UNL1        0.1715
     32 C          21.7873   73.9705    2.5968 C.3     1  UNL1        0.1694
     33 C          22.6308   74.4227    1.4023 C.3     1  UNL1        0.1761
     34 O          21.3404   70.5161    1.2065 O.3     1  UNL1       -0.3775
     35 O          20.3520   72.1751    3.3636 O.3     1  UNL1       -0.3794
     36 O          22.6360   73.7075    3.7150 O.3     1  UNL1       -0.3794
     37 O          23.5831   73.4117    1.0752 O.3     1  UNL1       -0.3258
     38 H          22.0117   69.8973    0.8883 H       1  UNL1        0.2106
     39 H          19.9009   71.3693    3.0817 H       1  UNL1        0.2105
     40 H          22.0643   73.4212    4.4392 H       1  UNL1        0.2105
     41 C          23.3656   75.7167    1.7596 C.3     1  UNL1        0.1693
     42 O          22.6126   76.4366    2.7373 O.3     1  UNL1       -0.3794
     43 H          23.1090   77.2427    2.9350 H       1  UNL1        0.2105
@<TRIPOS>BOND
     1    15    16   ar
     2    15    20   ar
     3    15     6    1
     4    16    17   ar
     5    16    21    2
     6    17    18   ar
     7    17    23    1
     8    18    19   ar
     9    18    22    2
    10    19    20   ar
    11     6     7    1
    12     6    11    1
    13     7     8    1
    14     7     9    1
    15     8    13    1
    16     9    10    1
    17     9    12    1
    18    10    11    1
    19    10     5    1
    20    12    14    1
    21     5     4    1
    22     4     1    1
    23     1     2    2
    24     1     3    1
    25     1    24    1
    26    24    25    1
    27    25    26    2
    28    25    27    1
    29    25    28    1
    30    28    29    1
    31    29    30    1
    32    29    37    1
    33    30    31    1
    34    30    34    1
    35    31    32    1
    36    31    35    1
    37    32    33    1
    38    32    36    1
    39    33    41    1
    40    33    37    1
    41    41    42    1
    42    34    38    1
    43    35    39    1
    44    36    40    1
    45    42    43    1
@<TRIPOS>MOLECULE
GDU
 43 45 0 0 0
SMALL
GASTEIGER

@<TRIPOS>ATOM
      1 P          21.4485   71.0582   -0.3843 P.3     1  UNL1        0.2189
      2 O          21.5611   70.2466    0.8478 O.2     1  UNL1       -0.5170
      3 O          22.7363   70.8007   -1.3161 O.3     1  UNL1       -0.4371
      4 O          20.1163   70.6403   -1.1828 O.3     1  UNL1       -0.3112
      5 C          20.1354   71.3525   -2.4209 C.3     1  UNL1        0.1811
      6 C          17.8549   70.8355   -5.1521 C.3     1  UNL1        0.2383
      7 C          17.9333   69.4585   -4.4446 C.3     1  UNL1        0.1895
      8 O          16.6999   68.7476   -4.5743 O.3     1  UNL1       -0.3779
      9 C          18.1849   69.8650   -2.9693 C.3     1  UNL1        0.1713
     10 C          18.7496   71.2945   -3.0661 C.3     1  UNL1        0.1764
     11 O          18.8465   71.6256   -4.4622 O.3     1  UNL1       -0.3308
     12 O          16.9610   69.8523   -2.2318 O.3     1  UNL1       -0.3794
     13 H          16.8148   67.9039   -4.1152 H       1  UNL1        0.2106
     14 H          16.6280   68.9450   -2.2575 H       1  UNL1        0.2105
     15 N          18.1921   70.7088   -6.5709 N.ar    1  UNL1       -0.2551
     16 C          17.2131   70.5340   -7.4760 C.ar    1  UNL1        0.3323
     17 N          17.4959   70.4183   -8.7870 N.ar    1  UNL1       -0.2743
     18 C          18.7724   70.4662   -9.2140 C.ar    1  UNL1        0.2626
     19 C          19.8145   70.6441   -8.2713 C.ar    1  UNL1        0.0795
     20 C          19.5027   70.7617   -6.9631 C.ar    1  UNL1        0.0869
     21 O          16.0568   70.4893   -7.1059 O.2     1  UNL1       -0.2464
     22 O          19.0297   70.3568  -10.3999 O.2     1  UNL1       -0.2670
     23 H          16.7764   70.2970   -9.4268 H       1  UNL1        0.1734
     24 O          21.3742   72.6183    0.0068 O.3     1  UNL1       -0.2703
     25 P          22.8489   73.0502    0.4850 P.3     1  UNL1        0.2208
     26 O          23.6852   71.8418    0.6567 O.2     1  UNL1       -0.5170
     27 O          23.5136   74.0089   -0.6254 O.3     1  UNL1       -0.4371
     28 O          22.7508   73.8394    1.8842 O.3     1  UNL1       -0.2858
     29 C          23.1584   72.9271    2.9046 C.3     1  UNL1        0.2704
     30 C          21.9908   72.6777    3.8606 C.3     1  UNL1        0.1967
     31 C          21.5529   74.0124    4.4717 C.3     1  UNL1        0.1715
     32 C          22.7768   74.6889    5.0994 C.3     1  UNL1        0.1694
     33 C          23.8849   74.7876    4.0480 C.3     1  UNL1        0.1761
     34 O          20.9001   72.0975    3.1429 O.3     1  UNL1       -0.3775
     35 O          20.5628   73.7790    5.4755 O.3     1  UNL1       -0.3794
     36 O          23.2330   73.9156    6.2102 O.3     1  UNL1       -0.3794
     37 O          24.2608   73.4791    3.6206 O.3     1  UNL1       -0.3258
     38 H          21.2224   71.2655    2.7705 H       1  UNL1        0.2106
     39 H          19.8196   73.3432    5.0396 H       1  UNL1        0.2105
     40 H          22.5032   73.8756    6.8419 H       1  UNL1        0.2105
     41 C          25.1000   75.4928    4.6548 C.3     1  UNL1        0.1693
     42 O          25.9673   74.5227    5.2446 O.3     1  UNL1       -0.3794
     43 H          26.7187   75.0069    5.6139 H       1  UNL1        0.2105
@<TRIPOS>BOND
     1    15    16   ar
     2    15    20   ar
     3    15     6    1
     4    16    17   ar
     5    16    21    2
     6    17    18   ar
     7    17    23    1
     8    18    19   ar
     9    18    22    2
    10    19    20   ar
    11     6     7    1
    12     6    11    1
    13     7     8    1
    14     7     9    1
    15     8    13    1
    16     9    10    1
    17     9    12    1
    18    10    11    1
    19    10     5    1
    20    12    14    1
    21     5     4    1
    22     4     1    1
    23     1     2    2
    24     1     3    1
    25     1    24    1
    26    24    25    1
    27    25    26    2
    28    25    27    1
    29    25    28    1
    30    28    29    1
    31    29    30    1
    32    29    37    1
    33    30    31    1
    34    30    34    1
    35    31    32    1
    36    31    35    1
    37    32    33    1
    38    32    36    1
    39    33    41    1
    40    33    37    1
    41    41    42    1
    42    34    38    1
    43    35    39    1
    44    36    40    1
    45    42    43    1
@<TRIPOS>MOLECULE
GDU
 43 45 0 0 0
SMALL
GASTEIGER

@<TRIPOS>ATOM
      1 P          21.0193   71.7263   -2.3120 P.3     1  UNL1        0.2189
      2 O          21.1400   70.6965   -1.2563 O.2     1  UNL1       -0.5170
      3 O          21.7534   71.2121   -3.6497 O.3     1  UNL1       -0.4371
      4 O          19.4647   71.9968   -2.6231 O.3     1  UNL1       -0.3112
      5 C          18.8067   70.7298   -2.5760 C.3     1  UNL1        0.1811
      6 C          17.1105   70.5280   -5.7397 C.3     1  UNL1        0.2383
      7 C          17.0554   69.0850   -5.1760 C.3     1  UNL1        0.1895
      8 O          15.8753   68.4099   -5.6173 O.3     1  UNL1       -0.3779
      9 C          17.0099   69.3355   -3.6461 C.3     1  UNL1        0.1713
     10 C          17.5751   70.7587   -3.4829 C.3     1  UNL1        0.1764
     11 O          17.9430   71.2287   -4.7913 O.3     1  UNL1       -0.3308
     12 O          15.6650   69.2663   -3.1683 O.3     1  UNL1       -0.3794
     13 H          15.9020   67.5221   -5.2338 H       1  UNL1        0.2106
     14 H          15.3483   68.3714   -3.3518 H       1  UNL1        0.2105
     15 N          17.7207   70.5413   -7.0702 N.ar    1  UNL1       -0.2551
     16 C          16.9386   70.4942   -8.1631 C.ar    1  UNL1        0.3323
     17 N          17.4742   70.5087   -9.3979 N.ar    1  UNL1       -0.2743
     18 C          18.8105   70.5610   -9.5589 C.ar    1  UNL1        0.2626
     19 C          19.6470   70.6052   -8.4167 C.ar    1  UNL1        0.0795
     20 C          19.0834   70.5937   -7.1901 C.ar    1  UNL1        0.0869
     21 O          15.7315   70.4473   -8.0337 O.2     1  UNL1       -0.2464
     22 O          19.2964   70.5693  -10.6762 O.2     1  UNL1       -0.2670
     23 H          16.8945   70.4785  -10.1756 H       1  UNL1        0.1734
     24 O          21.7130   73.0904   -1.8114 O.3     1  UNL1       -0.2703
     25 P          20.9028   73.5750   -0.5081 P.3     1  UNL1        0.2208
     26 O          20.4806   74.9819   -0.6849 O.2     1  UNL1       -0.5170
     27 O          19.6023   72.6459   -0.3088 O.3     1  UNL1       -0.4371
     28 O          21.8492   73.4565    0.7882 O.3     1  UNL1       -0.2858
     29 C          21.3394   72.3807    1.5772 C.3     1  UNL1        0.2704
     30 C          20.7504   72.9357    2.8751 C.3     1  UNL1        0.1967
     31 C          21.8438   73.6929    3.6350 C.3     1  UNL1        0.1715
     32 C          23.0509   72.7646    3.8110 C.3     1  UNL1        0.1694
     33 C          23.4668   72.2238    2.4408 C.3     1  UNL1        0.1761
     34 O          19.6739   73.8243    2.5706 O.3     1  UNL1       -0.3775
     35 O          21.3504   74.0910    4.9159 O.3     1  UNL1       -0.3794
     36 O          22.6983   71.6802    4.6711 O.3     1  UNL1       -0.3794
     37 O          22.3953   71.4703    1.8752 O.3     1  UNL1       -0.3258
     38 H          19.0143   73.3082    2.0875 H       1  UNL1        0.2106
     39 H          20.5877   74.6614    4.7571 H       1  UNL1        0.2105
     40 H          22.4386   72.0672    5.5173 H       1  UNL1        0.2105
     41 C          24.6931   71.3224    2.6010 C.3     1  UNL1        0.1693
     42 O          24.4212   70.0430    2.0264 O.3     1  UNL1       -0.3794
     43 H          25.2170   69.5070    2.1474 H       1  UNL1        0.2105
@<TRIPOS>BOND
     1    15    16   ar
     2    15    20   ar
     3    15     6    1
     4    16    17   ar
     5    16    21    2
     6    17    18   ar
     7    17    23    1
     8    18    19   ar
     9    18    22    2
    10    19    20   ar
    11     6     7    1
    12     6    11    1
    13     7     8    1
    14     7     9    1
    15     8    13    1
    16     9    10    1
    17     9    12    1
    18    10    11    1
    19    10     5    1
    20    12    14    1
    21     5     4    1
    22     4     1    1
    23     1     2    2
    24     1     3    1
    25     1    24    1
    26    24    25    1
    27    25    26    2
    28    25    27    1
    29    25    28    1
    30    28    29    1
    31    29    30    1
    32    29    37    1
    33    30    31    1
    34    30    34    1
    35    31    32    1
    36    31    35    1
    37    32    33    1
    38    32    36    1
    39    33    41    1
    40    33    37    1
    41    41    42    1
    42    34    38    1
    43    35    39    1
    44    36    40    1
    45    42    43    1
@<TRIPOS>MOLECULE
GDU
 43 45 0 0 0
SMALL
GASTEIGER

@<TRIPOS>ATOM
      1 P          21.6399   71.3803    0.0831 P.3     1  UNL1        0.2189
      2 O          20.2443   71.8529   -0.0528 O.2     1  UNL1       -0.5170
      3 O          21.6896   70.1432    1.1127 O.3     1  UNL1       -0.4371
      4 O          22.1886   70.9060   -1.3525 O.3     1  UNL1       -0.3112
      5 C          21.0507   70.7662   -2.2047 C.3     1  UNL1        0.1811
      6 C          20.5511   70.7754   -5.7653 C.3     1  UNL1        0.2383
      7 C          20.9055   72.2441   -5.4183 C.3     1  UNL1        0.1895
      8 O          21.5874   72.8744   -6.5050 O.3     1  UNL1       -0.3779
      9 C          21.8484   72.0714   -4.1992 C.3     1  UNL1        0.1713
     10 C          21.5106   70.6688   -3.6605 C.3     1  UNL1        0.1764
     11 O          20.4493   70.1392   -4.4736 O.3     1  UNL1       -0.3308
     12 O          23.2151   72.1407   -4.6109 O.3     1  UNL1       -0.3794
     13 H          21.7781   73.7810   -6.2262 H       1  UNL1        0.2106
     14 H          23.3485   73.0192   -4.9920 H       1  UNL1        0.2105
     15 N          19.2738   70.7051   -6.4770 N.ar    1  UNL1       -0.2551
     16 C          19.2538   70.7758   -7.8197 C.ar    1  UNL1        0.3323
     17 N          18.0932   70.7101   -8.4984 N.ar    1  UNL1       -0.2743
     18 C          16.9260   70.5816   -7.8386 C.ar    1  UNL1        0.2626
     19 C          16.9313   70.5116   -6.4240 C.ar    1  UNL1        0.0795
     20 C          18.1096   70.5757   -5.7684 C.ar    1  UNL1        0.0869
     21 O          20.2987   70.8913   -8.4286 O.2     1  UNL1       -0.2464
     22 O          15.8746   70.5268   -8.4519 O.2     1  UNL1       -0.2670
     23 H          18.0978   70.7584   -9.4676 H       1  UNL1        0.1734
     24 O          22.5592   72.5785    0.6413 O.3     1  UNL1       -0.2703
     25 P          23.8314   71.8975    1.3539 P.3     1  UNL1        0.2208
     26 O          23.3957   71.2133    2.5913 O.2     1  UNL1       -0.5170
     27 O          24.4959   70.8243    0.3535 O.3     1  UNL1       -0.4371
     28 O          24.9139   73.0310    1.7190 O.3     1  UNL1       -0.2858
     29 C          24.4136   73.7309    2.8589 C.3     1  UNL1        0.2704
     30 C          24.2090   75.2041    2.5025 C.3     1  UNL1        0.1967
     31 C          25.5460   75.7973    2.0476 C.3     1  UNL1        0.1715
     32 C          26.5958   75.5281    3.1317 C.3     1  UNL1        0.1694
     33 C          26.6206   74.0289    3.4391 C.3     1  UNL1        0.1761
     34 O          23.2517   75.3129    1.4475 O.3     1  UNL1       -0.3775
     35 O          25.4046   77.2059    1.8520 O.3     1  UNL1       -0.3794
     36 O          26.2605   76.2576    4.3130 O.3     1  UNL1       -0.3794
     37 O          25.3461   73.6172    3.9313 O.3     1  UNL1       -0.3258
     38 H          22.4303   74.9218    1.7748 H       1  UNL1        0.2106
     39 H          24.7287   77.3278    1.1733 H       1  UNL1        0.2105
     40 H          26.2510   77.1928    4.0712 H       1  UNL1        0.2105
     41 C          27.6899   73.7444    4.4964 C.3     1  UNL1        0.1693
     42 O          28.9219   73.4184    3.8508 O.3     1  UNL1       -0.3794
     43 H          29.5677   73.2473    4.5501 H       1  UNL1        0.2105
@<TRIPOS>BOND
     1    15    16   ar
     2    15    20   ar
     3    15     6    1
     4    16    17   ar
     5    16    21    2
     6    17    18   ar
     7    17    23    1
     8    18    19   ar
     9    18    22    2
    10    19    20   ar
    11     6     7    1
    12     6    11    1
    13     7     8    1
    14     7     9    1
    15     8    13    1
    16     9    10    1
    17     9    12    1
    18    10    11    1
    19    10     5    1
    20    12    14    1
    21     5     4    1
    22     4     1    1
    23     1     2    2
    24     1     3    1
    25     1    24    1
    26    24    25    1
    27    25    26    2
    28    25    27    1
    29    25    28    1
    30    28    29    1
    31    29    30    1
    32    29    37    1
    33    30    31    1
    34    30    34    1
    35    31    32    1
    36    31    35    1
    37    32    33    1
    38    32    36    1
    39    33    41    1
    40    33    37    1
    41    41    42    1
    42    34    38    1
    43    35    39    1
    44    36    40    1
    45    42    43    1
@<TRIPOS>MOLECULE
GDU
 43 45 0 0 0
SMALL
GASTEIGER

@<TRIPOS>ATOM
      1 P          22.5808   71.4269   -2.7109 P.3     1  UNL1        0.2189
      2 O          22.1912   72.8530   -2.6468 O.2     1  UNL1       -0.5170
      3 O          24.0231   71.2958   -3.4148 O.3     1  UNL1       -0.4371
      4 O          22.6532   70.8226   -1.2222 O.3     1  UNL1       -0.3112
      5 C          21.3435   70.9391   -0.6641 C.3     1  UNL1        0.1811
      6 C          23.0903   71.8647    2.3391 C.3     1  UNL1        0.2383
      7 C          22.5089   73.1971    1.8008 C.3     1  UNL1        0.1895
      8 O          22.2128   74.0944    2.8733 O.3     1  UNL1       -0.3779
      9 C          21.2086   72.7245    1.1000 C.3     1  UNL1        0.1713
     10 C          21.4496   71.2268    0.8346 C.3     1  UNL1        0.1764
     11 O          22.7743   70.9148    1.2993 O.3     1  UNL1       -0.3308
     12 O          20.0818   72.9123    1.9584 O.3     1  UNL1       -0.3794
     13 H          21.8566   74.8998    2.4728 H       1  UNL1        0.2106
     14 H          20.0192   73.8608    2.1349 H       1  UNL1        0.2105
     15 N          24.5392   71.9677    2.5206 N.ar    1  UNL1       -0.2551
     16 C          25.3029   70.8647    2.4288 C.ar    1  UNL1        0.3323
     17 N          26.6378   70.9326    2.5881 N.ar    1  UNL1       -0.2743
     18 C          27.2318   72.1120    2.8533 C.ar    1  UNL1        0.2626
     19 C          26.4394   73.2813    2.9585 C.ar    1  UNL1        0.0795
     20 C          25.1033   73.1856    2.7901 C.ar    1  UNL1        0.0869
     21 O          24.7813   69.7938    2.1896 O.2     1  UNL1       -0.2464
     22 O          28.4395   72.1737    3.0023 O.2     1  UNL1       -0.2670
     23 H          27.1740   70.1271    2.5142 H       1  UNL1        0.1734
     24 O          21.4899   70.6118   -3.5700 O.3     1  UNL1       -0.2703
     25 P          20.8959   71.6348   -4.6611 P.3     1  UNL1        0.2208
     26 O          20.1461   72.7088   -3.9732 O.2     1  UNL1       -0.5170
     27 O          22.1061   72.2814   -5.5047 O.3     1  UNL1       -0.4371
     28 O          19.9103   70.8448   -5.6584 O.3     1  UNL1       -0.2858
     29 C          18.8886   71.7641   -6.0465 C.3     1  UNL1        0.2704
     30 C          17.5230   71.2100   -5.6375 C.3     1  UNL1        0.1967
     31 C          17.3133   69.8515   -6.3133 C.3     1  UNL1        0.1715
     32 C          17.5246   70.0171   -7.8225 C.3     1  UNL1        0.1694
     33 C          18.8921   70.6603   -8.0660 C.3     1  UNL1        0.1761
     34 O          17.4759   71.0526   -4.2182 O.3     1  UNL1       -0.3775
     35 O          15.9850   69.3891   -6.0599 O.3     1  UNL1       -0.3794
     36 O          16.4967   70.8503   -8.3603 O.3     1  UNL1       -0.3794
     37 O          18.9317   71.9511   -7.4593 O.3     1  UNL1       -0.3258
     38 H          17.6194   71.9289   -3.8355 H       1  UNL1        0.2106
     39 H          15.8937   69.3113   -5.1019 H       1  UNL1        0.2105
     40 H          15.6561   70.4099   -8.1792 H       1  UNL1        0.2105
     41 C          19.1277   70.7988   -9.5717 C.3     1  UNL1        0.1693
     42 O          18.2085   69.9620  -10.2758 O.3     1  UNL1       -0.3794
     43 H          18.3893   70.0789  -11.2187 H       1  UNL1        0.2105
@<TRIPOS>BOND
     1    15    16   ar
     2    15    20   ar
     3    15     6    1
     4    16    17   ar
     5    16    21    2
     6    17    18   ar
     7    17    23    1
     8    18    19   ar
     9    18    22    2
    10    19    20   ar
    11     6     7    1
    12     6    11    1
    13     7     8    1
    14     7     9    1
    15     8    13    1
    16     9    10    1
    17     9    12    1
    18    10    11    1
    19    10     5    1
    20    12    14    1
    21     5     4    1
    22     4     1    1
    23     1     2    2
    24     1     3    1
    25     1    24    1
    26    24    25    1
    27    25    26    2
    28    25    27    1
    29    25    28    1
    30    28    29    1
    31    29    30    1
    32    29    37    1
    33    30    31    1
    34    30    34    1
    35    31    32    1
    36    31    35    1
    37    32    33    1
    38    32    36    1
    39    33    41    1
    40    33    37    1
    41    41    42    1
    42    34    38    1
    43    35    39    1
    44    36    40    1
    45    42    43    1
@<TRIPOS>MOLECULE
GDU
 43 45 0 0 0
SMALL
GASTEIGER

@<TRIPOS>ATOM
      1 P          16.9715   71.3921   -2.7223 P.3     1  UNL1        0.2189
      2 O          17.3239   70.1062   -3.3641 O.2     1  UNL1       -0.5170
      3 O          16.9054   72.5493   -3.8400 O.3     1  UNL1       -0.4371
      4 O          15.5392   71.2584   -2.0029 O.3     1  UNL1       -0.3112
      5 C          15.5545   70.0290   -1.2757 C.3     1  UNL1        0.1811
      6 C          12.8643   68.3284    0.3972 C.3     1  UNL1        0.2383
      7 C          12.6640   69.8227    0.7577 C.3     1  UNL1        0.1895
      8 O          11.2786   70.1207    0.9454 O.3     1  UNL1       -0.3779
      9 C          13.2178   70.5379   -0.5021 C.3     1  UNL1        0.1713
     10 C          14.1293   69.4852   -1.1598 C.3     1  UNL1        0.1764
     11 O          14.1183   68.3195   -0.3176 O.3     1  UNL1       -0.3308
     12 O          12.1503   70.9031   -1.3791 O.3     1  UNL1       -0.3794
     13 H          11.2231   71.0608    1.1664 H       1  UNL1        0.2106
     14 H          11.5839   71.5159   -0.8909 H       1  UNL1        0.2105
     15 N          12.9551   67.5111    1.6082 N.ar    1  UNL1       -0.2551
     16 C          12.4940   66.2480    1.5963 C.ar    1  UNL1        0.3323
     17 N          12.5687   65.4742    2.6953 N.ar    1  UNL1       -0.2743
     18 C          13.1007   65.9594    3.8336 C.ar    1  UNL1        0.2626
     19 C          13.5852   67.2900    3.8625 C.ar    1  UNL1        0.0795
     20 C          13.5019   68.0429    2.7450 C.ar    1  UNL1        0.0869
     21 O          12.0118   65.7964    0.5767 O.2     1  UNL1       -0.2464
     22 O          13.1644   65.2613    4.8302 O.2     1  UNL1       -0.2670
     23 H          12.2349   64.5634    2.6675 H       1  UNL1        0.1734
     24 O          18.0903   71.7687   -1.6274 O.3     1  UNL1       -0.2703
     25 P          19.4324   70.9836   -2.0426 P.3     1  UNL1        0.2208
     26 O          20.2537   70.7390   -0.8364 O.2     1  UNL1       -0.5170
     27 O          19.0423   69.5755   -2.7201 O.3     1  UNL1       -0.4371
     28 O          20.2704   71.8693   -3.0930 O.3     1  UNL1       -0.2858
     29 C          20.9817   70.9569   -3.9305 C.3     1  UNL1        0.2704
     30 C          22.4857   71.1787   -3.7630 C.3     1  UNL1        0.1967
     31 C          22.8205   72.6268   -4.1338 C.3     1  UNL1        0.1715
     32 C          22.2711   72.9132   -5.5358 C.3     1  UNL1        0.1694
     33 C          20.7818   72.5614   -5.5683 C.3     1  UNL1        0.1761
     34 O          22.8576   70.9324   -2.4057 O.3     1  UNL1       -0.3775
     35 O          24.2379   72.8094   -4.1243 O.3     1  UNL1       -0.3794
     36 O          22.9747   72.1229   -6.4953 O.3     1  UNL1       -0.3794
     37 O          20.6090   71.1727   -5.2896 O.3     1  UNL1       -0.3258
     38 H          22.6227   70.0142   -2.2143 H       1  UNL1        0.2106
     39 H          24.5401   72.6076   -3.2298 H       1  UNL1        0.2105
     40 H          23.9058   72.3734   -6.4354 H       1  UNL1        0.2105
     41 C          20.2152   72.8760   -6.9547 C.3     1  UNL1        0.1693
     42 O          20.9180   73.9867   -7.5146 O.3     1  UNL1       -0.3794
     43 H          20.5321   74.1516   -8.3859 H       1  UNL1        0.2105
@<TRIPOS>BOND
     1    15    16   ar
     2    15    20   ar
     3    15     6    1
     4    16    17   ar
     5    16    21    2
     6    17    18   ar
     7    17    23    1
     8    18    19   ar
     9    18    22    2
    10    19    20   ar
    11     6     7    1
    12     6    11    1
    13     7     8    1
    14     7     9    1
    15     8    13    1
    16     9    10    1
    17     9    12    1
    18    10    11    1
    19    10     5    1
    20    12    14    1
    21     5     4    1
    22     4     1    1
    23     1     2    2
    24     1     3    1
    25     1    24    1
    26    24    25    1
    27    25    26    2
    28    25    27    1
    29    25    28    1
    30    28    29    1
    31    29    30    1
    32    29    37    1
    33    30    31    1
    34    30    34    1
    35    31    32    1
    36    31    35    1
    37    32    33    1
    38    32    36    1
    39    33    41    1
    40    33    37    1
    41    41    42    1
    42    34    38    1
    43    35    39    1
    44    36    40    1
    45    42    43    1
@<TRIPOS>MOLECULE
GDU
 43 45 0 0 0
SMALL
GASTEIGER

@<TRIPOS>ATOM
      1 P          15.7482   70.3813   -2.4803 P.3     1  UNL1        0.2189
      2 O          15.7551   69.1307   -3.2713 O.2     1  UNL1       -0.5170
      3 O          15.4621   71.6309   -3.4548 O.3     1  UNL1       -0.4371
      4 O          14.5983   70.3011   -1.3587 O.3     1  UNL1       -0.3112
      5 C          14.6448   68.9822   -0.8120 C.3     1  UNL1        0.1811
      6 C          11.4502   67.7236    0.2545 C.3     1  UNL1        0.2383
      7 C          12.4697   66.6648    0.7470 C.3     1  UNL1        0.1895
      8 O          12.0117   66.0349    1.9456 O.3     1  UNL1       -0.3779
      9 C          13.7279   67.5287    1.0222 C.3     1  UNL1        0.1713
     10 C          13.4989   68.8008    0.1850 C.3     1  UNL1        0.1764
     11 O          12.2580   68.6333   -0.5223 O.3     1  UNL1       -0.3308
     12 O          13.8214   67.8467    2.4122 O.3     1  UNL1       -0.3794
     13 H          12.6876   65.3904    2.1978 H       1  UNL1        0.2106
     14 H          13.9036   67.0082    2.8864 H       1  UNL1        0.2105
     15 N          10.4225   67.1027   -0.5829 N.ar    1  UNL1       -0.2551
     16 C           9.2874   66.6513   -0.0208 C.ar    1  UNL1        0.3323
     17 N           8.3252   66.0797   -0.7687 N.ar    1  UNL1       -0.2743
     18 C           8.4896   65.9413   -2.0984 C.ar    1  UNL1        0.2626
     19 C           9.6826   66.4070   -2.7034 C.ar    1  UNL1        0.0795
     20 C          10.6296   66.9802   -1.9306 C.ar    1  UNL1        0.0869
     21 O           9.1246   66.7695    1.1773 O.2     1  UNL1       -0.2464
     22 O           7.6213   65.4198   -2.7755 O.2     1  UNL1       -0.2670
     23 H           7.5104   65.7633   -0.3470 H       1  UNL1        0.1734
     24 O          17.1802   70.5736   -1.7698 O.3     1  UNL1       -0.2703
     25 P          18.2984   70.1946   -2.8635 P.3     1  UNL1        0.2208
     26 O          19.6410   70.5007   -2.3223 O.2     1  UNL1       -0.5170
     27 O          18.2036   68.6236   -3.2055 O.3     1  UNL1       -0.4371
     28 O          18.0512   71.0502   -4.2039 O.3     1  UNL1       -0.2858
     29 C          18.7987   70.4178   -5.2437 C.3     1  UNL1        0.2704
     30 C          19.7930   71.4175   -5.8363 C.3     1  UNL1        0.1967
     31 C          19.0222   72.6238   -6.3814 C.3     1  UNL1        0.1715
     32 C          17.9467   72.1208   -7.3508 C.3     1  UNL1        0.1694
     33 C          17.0905   71.0684   -6.6420 C.3     1  UNL1        0.1761
     34 O          20.7021   71.8473   -4.8214 O.3     1  UNL1       -0.3775
     35 O          19.9208   73.4972   -7.0685 O.3     1  UNL1       -0.3794
     36 O          18.5704   71.5425   -8.4982 O.3     1  UNL1       -0.3794
     37 O          17.9067   69.9626   -6.2585 O.3     1  UNL1       -0.3258
     38 H          21.1589   71.0567   -4.5031 H       1  UNL1        0.2106
     39 H          20.5843   73.7782   -6.4257 H       1  UNL1        0.2105
     40 H          19.1018   72.2375   -8.9080 H       1  UNL1        0.2105
     41 C          15.9916   70.5842   -7.5906 C.3     1  UNL1        0.1693
     42 O          15.7135   71.6012   -8.5547 O.3     1  UNL1       -0.3794
     43 H          15.0182   71.2569   -9.1320 H       1  UNL1        0.2105
@<TRIPOS>BOND
     1    15    16   ar
     2    15    20   ar
     3    15     6    1
     4    16    17   ar
     5    16    21    2
     6    17    18   ar
     7    17    23    1
     8    18    19   ar
     9    18    22    2
    10    19    20   ar
    11     6     7    1
    12     6    11    1
    13     7     8    1
    14     7     9    1
    15     8    13    1
    16     9    10    1
    17     9    12    1
    18    10    11    1
    19    10     5    1
    20    12    14    1
    21     5     4    1
    22     4     1    1
    23     1     2    2
    24     1     3    1
    25     1    24    1
    26    24    25    1
    27    25    26    2
    28    25    27    1
    29    25    28    1
    30    28    29    1
    31    29    30    1
    32    29    37    1
    33    30    31    1
    34    30    34    1
    35    31    32    1
    36    31    35    1
    37    32    33    1
    38    32    36    1
    39    33    41    1
    40    33    37    1
    41    41    42    1
    42    34    38    1
    43    35    39    1
    44    36    40    1
    45    42    43    1
@<TRIPOS>MOLECULE
GDU
 43 45 0 0 0
SMALL
GASTEIGER

@<TRIPOS>ATOM
      1 P          20.7179   71.9660   -2.3829 P.3     1  UNL1        0.2189
      2 O          20.3643   72.1392   -0.9566 O.2     1  UNL1       -0.5170
      3 O          21.2929   70.4802   -2.6166 O.3     1  UNL1       -0.4371
      4 O          19.4085   72.1838   -3.2911 O.3     1  UNL1       -0.3112
      5 C          18.2860   71.7920   -2.4993 C.3     1  UNL1        0.1811
      6 C          16.9594   70.5647   -5.6076 C.3     1  UNL1        0.2383
      7 C          17.3643   69.2885   -4.8264 C.3     1  UNL1        0.1895
      8 O          16.5145   68.1908   -5.1673 O.3     1  UNL1       -0.3779
      9 C          17.1415   69.7241   -3.3547 C.3     1  UNL1        0.1713
     10 C          17.1769   71.2626   -3.4103 C.3     1  UNL1        0.1764
     11 O          17.4430   71.6383   -4.7728 O.3     1  UNL1       -0.3308
     12 O          15.8737   69.2628   -2.8836 O.3     1  UNL1       -0.3794
     13 H          16.8182   67.4319   -4.6500 H       1  UNL1        0.2106
     14 H          15.8928   68.2972   -2.9282 H       1  UNL1        0.2105
     15 N          17.6099   70.5977   -6.9186 N.ar    1  UNL1       -0.2551
     16 C          16.8654   70.5088   -8.0348 C.ar    1  UNL1        0.3323
     17 N          17.4383   70.5402   -9.2525 N.ar    1  UNL1       -0.2743
     18 C          18.7752   70.6518   -9.3723 C.ar    1  UNL1        0.2626
     19 C          19.5726   70.7406   -8.2050 C.ar    1  UNL1        0.0795
     20 C          18.9720   70.7109   -6.9964 C.ar    1  UNL1        0.0869
     21 O          15.6581   70.4082   -7.9426 O.2     1  UNL1       -0.2464
     22 O          19.2951   70.6755  -10.4739 O.2     1  UNL1       -0.2670
     23 H          16.8852   70.4792  -10.0475 H       1  UNL1        0.1734
     24 O          21.8412   73.0449   -2.7912 O.3     1  UNL1       -0.2703
     25 P          21.8135   74.1957   -1.6665 P.3     1  UNL1        0.2208
     26 O          22.4617   75.4166   -2.1942 O.2     1  UNL1       -0.5170
     27 O          20.2866   74.5261   -1.2746 O.3     1  UNL1       -0.4371
     28 O          22.6042   73.6894   -0.3594 O.3     1  UNL1       -0.2858
     29 C          22.4955   74.7247    0.6183 C.3     1  UNL1        0.2704
     30 C          23.8930   75.2226    0.9903 C.3     1  UNL1        0.1967
     31 C          24.7121   74.0482    1.5348 C.3     1  UNL1        0.1715
     32 C          23.9282   73.3918    2.6768 C.3     1  UNL1        0.1694
     33 C          22.5275   73.0307    2.1759 C.3     1  UNL1        0.1761
     34 O          24.5342   75.7588   -0.1684 O.3     1  UNL1       -0.3775
     35 O          25.9681   74.5243    2.0230 O.3     1  UNL1       -0.3794
     36 O          23.8289   74.3018    3.7731 O.3     1  UNL1       -0.3794
     37 O          21.8390   74.2150    1.7767 O.3     1  UNL1       -0.3258
     38 H          23.9818   76.4884   -0.4805 H       1  UNL1        0.2106
     39 H          26.4197   74.9383    1.2767 H       1  UNL1        0.2105
     40 H          24.7316   74.5049    4.0509 H       1  UNL1        0.2105
     41 C          21.7476   72.3433    3.2989 C.3     1  UNL1        0.1693
     42 O          20.3700   72.2488    2.9323 O.3     1  UNL1       -0.3794
     43 H          19.9150   71.8102    3.6643 H       1  UNL1        0.2105
@<TRIPOS>BOND
     1    15    16   ar
     2    15    20   ar
     3    15     6    1
     4    16    17   ar
     5    16    21    2
     6    17    18   ar
     7    17    23    1
     8    18    19   ar
     9    18    22    2
    10    19    20   ar
    11     6     7    1
    12     6    11    1
    13     7     8    1
    14     7     9    1
    15     8    13    1
    16     9    10    1
    17     9    12    1
    18    10    11    1
    19    10     5    1
    20    12    14    1
    21     5     4    1
    22     4     1    1
    23     1     2    2
    24     1     3    1
    25     1    24    1
    26    24    25    1
    27    25    26    2
    28    25    27    1
    29    25    28    1
    30    28    29    1
    31    29    30    1
    32    29    37    1
    33    30    31    1
    34    30    34    1
    35    31    32    1
    36    31    35    1
    37    32    33    1
    38    32    36    1
    39    33    41    1
    40    33    37    1
    41    41    42    1
    42    34    38    1
    43    35    39    1
    44    36    40    1
    45    42    43    1
@<TRIPOS>MOLECULE
GDU
 43 45 0 0 0
SMALL
GASTEIGER

@<TRIPOS>ATOM
      1 P          22.6057   71.3994   -2.8400 P.3     1  UNL1        0.2189
      2 O          24.0161   71.1212   -3.1906 O.2     1  UNL1       -0.5170
      3 O          21.6452   70.3718   -3.6238 O.3     1  UNL1       -0.4371
      4 O          22.4014   71.2220   -1.2545 O.3     1  UNL1       -0.3112
      5 C          22.6734   72.4910   -0.6577 C.3     1  UNL1        0.1811
      6 C          24.4400   72.6268    2.4709 C.3     1  UNL1        0.2383
      7 C          24.0286   71.1398    2.3206 C.3     1  UNL1        0.1895
      8 O          24.9829   70.2808    2.9487 O.3     1  UNL1       -0.3779
      9 C          24.0446   70.9523    0.7812 C.3     1  UNL1        0.1713
     10 C          23.9158   72.3839    0.2284 C.3     1  UNL1        0.1764
     11 O          23.7908   73.2705    1.3539 O.3     1  UNL1       -0.3308
     12 O          25.2742   70.3563    0.3632 O.3     1  UNL1       -0.3794
     13 H          24.6696   69.3746    2.8199 H       1  UNL1        0.2106
     14 H          25.3237   69.4892    0.7879 H       1  UNL1        0.2105
     15 N          23.9505   73.1742    3.7373 N.ar    1  UNL1       -0.2551
     16 C          24.6652   74.1166    4.3770 C.ar    1  UNL1        0.3323
     17 N          24.2358   74.6388    5.5410 N.ar    1  UNL1       -0.2743
     18 C          23.0814   74.2159    6.0912 C.ar    1  UNL1        0.2626
     19 C          22.3209   73.2196    5.4314 C.ar    1  UNL1        0.0795
     20 C          22.7726   72.7159    4.2632 C.ar    1  UNL1        0.0869
     21 O          25.7083   74.5084    3.8927 O.2     1  UNL1       -0.2464
     22 O          22.6943   74.6846    7.1471 O.2     1  UNL1       -0.2670
     23 H          24.7623   75.3213    5.9869 H       1  UNL1        0.1734
     24 O          22.2358   72.9078   -3.2645 O.3     1  UNL1       -0.2703
     25 P          21.9294   72.8861   -4.8443 P.3     1  UNL1        0.2208
     26 O          21.6288   74.2589   -5.3072 O.2     1  UNL1       -0.5170
     27 O          23.2166   72.3243   -5.6327 O.3     1  UNL1       -0.4371
     28 O          20.6658   71.9324   -5.1339 O.3     1  UNL1       -0.2858
     29 C          19.7537   72.6841   -5.9356 C.3     1  UNL1        0.2704
     30 C          18.3442   72.5607   -5.3546 C.3     1  UNL1        0.1967
     31 C          17.9454   71.0820   -5.3236 C.3     1  UNL1        0.1715
     32 C          18.1252   70.4965   -6.7288 C.3     1  UNL1        0.1694
     33 C          19.5531   70.7750   -7.2050 C.3     1  UNL1        0.1761
     34 O          18.3252   73.0909   -4.0280 O.3     1  UNL1       -0.3775
     35 O          16.5791   70.9616   -4.9220 O.3     1  UNL1       -0.3794
     36 O          17.1913   71.1037   -7.6226 O.3     1  UNL1       -0.3794
     37 O          19.7726   72.1833   -7.2703 O.3     1  UNL1       -0.3258
     38 H          18.5889   74.0188   -4.0947 H       1  UNL1        0.2106
     39 H          16.5108   71.3519   -4.0415 H       1  UNL1        0.2105
     40 H          16.3091   70.9078   -7.2811 H       1  UNL1        0.2105
     41 C          19.7539   70.1642   -8.5938 C.3     1  UNL1        0.1693
     42 O          19.2893   71.0796   -9.5875 O.3     1  UNL1       -0.3794
     43 H          19.4341   70.6581  -10.4458 H       1  UNL1        0.2105
@<TRIPOS>BOND
     1    15    16   ar
     2    15    20   ar
     3    15     6    1
     4    16    17   ar
     5    16    21    2
     6    17    18   ar
     7    17    23    1
     8    18    19   ar
     9    18    22    2
    10    19    20   ar
    11     6     7    1
    12     6    11    1
    13     7     8    1
    14     7     9    1
    15     8    13    1
    16     9    10    1
    17     9    12    1
    18    10    11    1
    19    10     5    1
    20    12    14    1
    21     5     4    1
    22     4     1    1
    23     1     2    2
    24     1     3    1
    25     1    24    1
    26    24    25    1
    27    25    26    2
    28    25    27    1
    29    25    28    1
    30    28    29    1
    31    29    30    1
    32    29    37    1
    33    30    31    1
    34    30    34    1
    35    31    32    1
    36    31    35    1
    37    32    33    1
    38    32    36    1
    39    33    41    1
    40    33    37    1
    41    41    42    1
    42    34    38    1
    43    35    39    1
    44    36    40    1
    45    42    43    1
@<TRIPOS>MOLECULE
GDU
 43 45 0 0 0
SMALL
GASTEIGER

@<TRIPOS>ATOM
      1 P          21.0540   71.2561   -2.7149 P.3     1  UNL1        0.2189
      2 O          22.2005   72.1367   -3.0303 O.2     1  UNL1       -0.5170
      3 O          21.0543   69.9953   -3.7166 O.3     1  UNL1       -0.4371
      4 O          21.1775   70.7361   -1.1979 O.3     1  UNL1       -0.3112
      5 C          22.4340   71.2009   -0.7022 C.3     1  UNL1        0.1811
      6 C          23.7483   71.9253    2.5650 C.3     1  UNL1        0.2383
      7 C          22.7345   73.0657    2.2918 C.3     1  UNL1        0.1895
      8 O          22.1433   73.5249    3.5095 O.3     1  UNL1       -0.3779
      9 C          21.6825   72.3580    1.3987 C.3     1  UNL1        0.1713
     10 C          22.4345   71.1421    0.8264 C.3     1  UNL1        0.1764
     11 O          23.7851   71.2010    1.3170 O.3     1  UNL1       -0.3308
     12 O          20.5630   71.9391    2.1817 O.3     1  UNL1       -0.3794
     13 H          21.5260   74.2305    3.2710 H       1  UNL1        0.2106
     14 H          20.1709   72.7380    2.5597 H       1  UNL1        0.2105
     15 N          25.0686   72.4714    2.8836 N.ar    1  UNL1       -0.2551
     16 C          26.1587   71.6930    2.7642 C.ar    1  UNL1        0.3323
     17 N          27.3845   72.1716    3.0473 N.ar    1  UNL1       -0.2743
     18 C          27.5382   73.4424    3.4666 C.ar    1  UNL1        0.2626
     19 C          26.3983   74.2721    3.6026 C.ar    1  UNL1        0.0795
     20 C          25.1811   73.7681    3.3079 C.ar    1  UNL1        0.0869
     21 O          26.0359   70.5448    2.3865 O.2     1  UNL1       -0.2464
     22 O          28.6468   73.8750    3.7278 O.2     1  UNL1       -0.2670
     23 H          28.1607   71.5971    2.9514 H       1  UNL1        0.1734
     24 O          19.6817   72.0795   -2.8913 O.3     1  UNL1       -0.2703
     25 P          18.4992   70.9949   -3.0146 P.3     1  UNL1        0.2208
     26 O          18.8148   69.8230   -2.1682 O.2     1  UNL1       -0.5170
     27 O          17.1138   71.6534   -2.5233 O.3     1  UNL1       -0.4371
     28 O          18.3558   70.5276   -4.5479 O.3     1  UNL1       -0.2858
     29 C          18.0716   71.6991   -5.3138 C.3     1  UNL1        0.2704
     30 C          16.7414   71.5179   -6.0467 C.3     1  UNL1        0.1967
     31 C          16.8358   70.2878   -6.9546 C.3     1  UNL1        0.1715
     32 C          18.0636   70.4398   -7.8595 C.3     1  UNL1        0.1694
     33 C          19.2948   70.7009   -6.9883 C.3     1  UNL1        0.1761
     34 O          15.6920   71.3328   -5.0950 O.3     1  UNL1       -0.3775
     35 O          15.6557   70.1900   -7.7548 O.3     1  UNL1       -0.3794
     36 O          17.8648   71.5348   -8.7547 O.3     1  UNL1       -0.3794
     37 O          19.1187   71.9135   -6.2573 O.3     1  UNL1       -0.3258
     38 H          15.6738   72.1257   -4.5419 H       1  UNL1        0.2106
     39 H          14.9107   70.1084   -7.1461 H       1  UNL1        0.2105
     40 H          17.0785   71.3299   -9.2772 H       1  UNL1        0.2105
     41 C          20.5326   70.8201   -7.8802 C.3     1  UNL1        0.1693
     42 O          20.7059   72.1826   -8.2734 O.3     1  UNL1       -0.3794
     43 H          21.4947   72.2145   -8.8321 H       1  UNL1        0.2105
@<TRIPOS>BOND
     1    15    16   ar
     2    15    20   ar
     3    15     6    1
     4    16    17   ar
     5    16    21    2
     6    17    18   ar
     7    17    23    1
     8    18    19   ar
     9    18    22    2
    10    19    20   ar
    11     6     7    1
    12     6    11    1
    13     7     8    1
    14     7     9    1
    15     8    13    1
    16     9    10    1
    17     9    12    1
    18    10    11    1
    19    10     5    1
    20    12    14    1
    21     5     4    1
    22     4     1    1
    23     1     2    2
    24     1     3    1
    25     1    24    1
    26    24    25    1
    27    25    26    2
    28    25    27    1
    29    25    28    1
    30    28    29    1
    31    29    30    1
    32    29    37    1
    33    30    31    1
    34    30    34    1
    35    31    32    1
    36    31    35    1
    37    32    33    1
    38    32    36    1
    39    33    41    1
    40    33    37    1
    41    41    42    1
    42    34    38    1
    43    35    39    1
    44    36    40    1
    45    42    43    1
@<TRIPOS>MOLECULE
GDU
 43 45 0 0 0
SMALL
GASTEIGER

@<TRIPOS>ATOM
      1 P          20.8894   72.5294   -2.5041 P.3     1  UNL1        0.2189
      2 O          19.9697   71.4268   -2.1463 O.2     1  UNL1       -0.5170
      3 O          20.0369   73.8597   -2.8148 O.3     1  UNL1       -0.4371
      4 O          21.8940   72.8095   -1.2798 O.3     1  UNL1       -0.3112
      5 C          23.0540   72.0068   -1.5044 C.3     1  UNL1        0.1811
      6 C          24.4768   71.4600    1.7520 C.3     1  UNL1        0.2383
      7 C          23.0344   71.9522    2.0352 C.3     1  UNL1        0.1895
      8 O          22.5298   71.3830    3.2454 O.3     1  UNL1       -0.3779
      9 C          22.2595   71.4125    0.8050 C.3     1  UNL1        0.1713
     10 C          23.3535   71.1788   -0.2534 C.3     1  UNL1        0.1764
     11 O          24.6043   71.5962    0.3207 O.3     1  UNL1       -0.3308
     12 O          21.5979   70.1881    1.1291 O.3     1  UNL1       -0.3794
     13 H          21.6337   71.7279    3.3634 H       1  UNL1        0.2106
     14 H          20.9694   70.3879    1.8360 H       1  UNL1        0.2105
     15 N          25.4562   72.3031    2.4396 N.ar    1  UNL1       -0.2551
     16 C          26.6801   71.8171    2.7119 C.ar    1  UNL1        0.3323
     17 N          27.6002   72.5727    3.3399 N.ar    1  UNL1       -0.2743
     18 C          27.3041   73.8316    3.7165 C.ar    1  UNL1        0.2626
     19 C          26.0170   74.3548    3.4414 C.ar    1  UNL1        0.0795
     20 C          25.1145   73.5770    2.8065 C.ar    1  UNL1        0.0869
     21 O          26.9619   70.6835    2.3779 O.2     1  UNL1       -0.2464
     22 O          28.1347   74.5146    4.2892 O.2     1  UNL1       -0.2670
     23 H          28.4800   72.2072    3.5246 H       1  UNL1        0.1734
     24 O          21.7354   72.1185   -3.8110 O.3     1  UNL1       -0.2703
     25 P          20.9127   72.6530   -5.0866 P.3     1  UNL1        0.2208
     26 O          20.8709   74.1318   -5.0620 O.2     1  UNL1       -0.5170
     27 O          21.6376   72.1597   -6.4377 O.3     1  UNL1       -0.4371
     28 O          19.4126   72.0720   -5.0411 O.3     1  UNL1       -0.2858
     29 C          19.4124   70.8636   -5.8023 C.3     1  UNL1        0.2704
     30 C          18.4039   70.9826   -6.9461 C.3     1  UNL1        0.1967
     31 C          17.0148   71.2528   -6.3599 C.3     1  UNL1        0.1715
     32 C          16.7007   70.1678   -5.3236 C.3     1  UNL1        0.1694
     33 C          17.8383   70.1120   -4.3010 C.3     1  UNL1        0.1761
     34 O          18.7801   72.0599   -7.8058 O.3     1  UNL1       -0.3775
     35 O          16.0387   71.2204   -7.4034 O.3     1  UNL1       -0.3794
     36 O          16.5770   68.9040   -5.9775 O.3     1  UNL1       -0.3794
     37 O          19.0588   69.7714   -4.9569 O.3     1  UNL1       -0.3258
     38 H          19.6611   71.8513   -8.1453 H       1  UNL1        0.2106
     39 H          16.2820   71.9084   -8.0356 H       1  UNL1        0.2105
     40 H          15.8552   68.9877   -6.6141 H       1  UNL1        0.2105
     41 C          17.5182   69.0549   -3.2418 C.3     1  UNL1        0.1693
     42 O          18.0027   69.4930   -1.9712 O.3     1  UNL1       -0.3794
     43 H          17.7808   68.8009   -1.3332 H       1  UNL1        0.2105
@<TRIPOS>BOND
     1    15    16   ar
     2    15    20   ar
     3    15     6    1
     4    16    17   ar
     5    16    21    2
     6    17    18   ar
     7    17    23    1
     8    18    19   ar
     9    18    22    2
    10    19    20   ar
    11     6     7    1
    12     6    11    1
    13     7     8    1
    14     7     9    1
    15     8    13    1
    16     9    10    1
    17     9    12    1
    18    10    11    1
    19    10     5    1
    20    12    14    1
    21     5     4    1
    22     4     1    1
    23     1     2    2
    24     1     3    1
    25     1    24    1
    26    24    25    1
    27    25    26    2
    28    25    27    1
    29    25    28    1
    30    28    29    1
    31    29    30    1
    32    29    37    1
    33    30    31    1
    34    30    34    1
    35    31    32    1
    36    31    35    1
    37    32    33    1
    38    32    36    1
    39    33    41    1
    40    33    37    1
    41    41    42    1
    42    34    38    1
    43    35    39    1
    44    36    40    1
    45    42    43    1
@<TRIPOS>MOLECULE
GDU
 43 45 0 0 0
SMALL
GASTEIGER

@<TRIPOS>ATOM
      1 P          21.7861   72.3182   -6.2700 P.3     1  UNL1        0.2189
      2 O          23.1427   72.7777   -6.6416 O.2     1  UNL1       -0.5170
      3 O          20.7110   73.4540   -6.6536 O.3     1  UNL1       -0.4371
      4 O          21.4417   70.9629   -7.0647 O.3     1  UNL1       -0.3112
      5 C          20.5747   71.3234   -8.1412 C.3     1  UNL1        0.1811
      6 C          17.4020   70.1471   -6.9258 C.3     1  UNL1        0.2383
      7 C          17.0398   71.1585   -8.0433 C.3     1  UNL1        0.1895
      8 O          15.8157   70.7931   -8.6846 O.3     1  UNL1       -0.3779
      9 C          18.2390   71.0114   -9.0157 C.3     1  UNL1        0.1713
     10 C          19.3538   70.4018   -8.1455 C.3     1  UNL1        0.1764
     11 O          18.8354   70.2714   -6.8105 O.3     1  UNL1       -0.3308
     12 O          17.9028   70.1370  -10.0948 O.3     1  UNL1       -0.3794
     13 H          15.6480   71.4594   -9.3657 H       1  UNL1        0.2106
     14 H          17.1626   70.5441  -10.5649 H       1  UNL1        0.2105
     15 N          16.7498   70.5109   -5.6667 N.ar    1  UNL1       -0.2551
     16 C          16.4260   69.5515   -4.7819 C.ar    1  UNL1        0.3323
     17 N          15.8290   69.8595   -3.6154 N.ar    1  UNL1       -0.2743
     18 C          15.5358   71.1403   -3.3190 C.ar    1  UNL1        0.2626
     19 C          15.8658   72.1609   -4.2441 C.ar    1  UNL1        0.0795
     20 C          16.4680   71.8247   -5.4046 C.ar    1  UNL1        0.0869
     21 O          16.6846   68.3917   -5.0351 O.2     1  UNL1       -0.2464
     22 O          14.9911   71.4196   -2.2656 O.2     1  UNL1       -0.2670
     23 H          15.6063   69.1547   -2.9866 H       1  UNL1        0.1734
     24 O          21.7298   72.0414   -4.6848 O.3     1  UNL1       -0.2703
     25 P          22.8195   73.0097   -4.0030 P.3     1  UNL1        0.2208
     26 O          24.1796   72.5163   -4.3124 O.2     1  UNL1       -0.5170
     27 O          22.6465   74.5030   -4.5813 O.3     1  UNL1       -0.4371
     28 O          22.6027   73.0246   -2.4084 O.3     1  UNL1       -0.2858
     29 C          21.9832   71.7852   -2.0623 C.3     1  UNL1        0.2704
     30 C          20.6754   72.0601   -1.3183 C.3     1  UNL1        0.1967
     31 C          20.9796   72.8821   -0.0621 C.3     1  UNL1        0.1715
     32 C          22.0529   72.1520    0.7533 C.3     1  UNL1        0.1694
     33 C          23.2579   71.8718   -0.1481 C.3     1  UNL1        0.1761
     34 O          19.7867   72.7899   -2.1661 O.3     1  UNL1       -0.3775
     35 O          19.7915   73.0217    0.7197 O.3     1  UNL1       -0.3794
     36 O          21.5229   70.9210    1.2469 O.3     1  UNL1       -0.3794
     37 O          22.8634   71.0316   -1.2317 O.3     1  UNL1       -0.3258
     38 H          19.6292   72.2393   -2.9452 H       1  UNL1        0.2106
     39 H          19.1429   73.4735    0.1651 H       1  UNL1        0.2105
     40 H          20.7652   71.1454    1.8027 H       1  UNL1        0.2105
     41 C          24.3497   71.1733    0.6656 C.3     1  UNL1        0.1693
     42 O          23.7719   70.1051    1.4181 O.3     1  UNL1       -0.3794
     43 H          24.4914   69.6916    1.9147 H       1  UNL1        0.2105
@<TRIPOS>BOND
     1    15    16   ar
     2    15    20   ar
     3    15     6    1
     4    16    17   ar
     5    16    21    2
     6    17    18   ar
     7    17    23    1
     8    18    19   ar
     9    18    22    2
    10    19    20   ar
    11     6     7    1
    12     6    11    1
    13     7     8    1
    14     7     9    1
    15     8    13    1
    16     9    10    1
    17     9    12    1
    18    10    11    1
    19    10     5    1
    20    12    14    1
    21     5     4    1
    22     4     1    1
    23     1     2    2
    24     1     3    1
    25     1    24    1
    26    24    25    1
    27    25    26    2
    28    25    27    1
    29    25    28    1
    30    28    29    1
    31    29    30    1
    32    29    37    1
    33    30    31    1
    34    30    34    1
    35    31    32    1
    36    31    35    1
    37    32    33    1
    38    32    36    1
    39    33    41    1
    40    33    37    1
    41    41    42    1
    42    34    38    1
    43    35    39    1
    44    36    40    1
    45    42    43    1
