@<TRIPOS>MOLECULE
*****
 43 45 0 0 0
SMALL
GASTEIGER

@<TRIPOS>ATOM
      1 P          23.0186   71.6170   -2.5114 P.3     1  UNL1        0.2189
      2 O          23.2596   73.1247   -1.9765 O.co2   1  UNL1       -0.4371
      3 O          24.2237   70.9588   -3.1162 O.2     1  UNL1       -0.5170
      4 O          21.7300   71.7500   -3.4807 O.3     1  UNL1       -0.3112
      5 C          20.8970   70.6174   -3.6574 C.3     1  UNL1        0.1811
      6 O          18.9302   71.6394   -4.5854 O.3     1  UNL1       -0.3308
      7 O          17.4181   70.3070   -2.3653 O.3     1  UNL1       -0.3794
      8 O          16.9123   68.6760   -4.4915 O.3     1  UNL1       -0.3779
      9 C          18.5415   69.8307   -3.1045 C.3     1  UNL1        0.1713
     10 C          18.1165   69.4153   -4.4975 C.3     1  UNL1        0.1895
     11 C          19.4525   71.0179   -3.3907 C.3     1  UNL1        0.1764
     12 C          17.9756   70.7565   -5.1971 C.3     1  UNL1        0.2383
     13 H          16.8220   69.5663   -2.1704 H       1  UNL1        0.2105
     14 H          17.0533   67.8316   -4.0355 H       1  UNL1        0.2106
     15 O          16.0576   70.1028   -7.1648 O.2     1  UNL1       -0.2464
     16 O          19.1515   70.4622  -10.5618 O.2     1  UNL1       -0.2670
     17 N          18.2525   70.6724   -6.6034 N.ar    1  UNL1       -0.2551
     18 N          17.5997   70.2825   -8.8546 N.ar    1  UNL1       -0.2743
     19 C          17.2186   70.3356   -7.5078 C.ar    1  UNL1        0.3323
     20 C          19.5372   70.9230   -7.0729 C.ar    1  UNL1        0.0869
     21 C          19.8846   70.8670   -8.3603 C.ar    1  UNL1        0.0795
     22 C          18.8635   70.5219   -9.3704 C.ar    1  UNL1        0.2626
     23 H          16.8960   70.0493   -9.5029 H       1  UNL1        0.1734
     24 O          22.4202   70.8622   -1.2132 O.3     1  UNL1       -0.2703
     25 P          21.7084   71.4415    0.1174 P.3     1  UNL1        0.2208
     26 O          21.3050   70.1047    0.9344 O.co2   1  UNL1       -0.4371
     27 O          20.5614   72.3715   -0.1535 O.2     1  UNL1       -0.5170
     28 O          22.9113   72.0946    0.9728 O.3     1  UNL1       -0.2858
     29 O          24.6101   71.6903    2.5751 O.3     1  UNL1       -0.3258
     30 O          22.1504   74.1298    4.8223 O.3     1  UNL1       -0.3794
     31 O          24.6549   75.1478    3.8530 O.3     1  UNL1       -0.3794
     32 O          20.9953   72.1800    3.0214 O.3     1  UNL1       -0.3775
     33 C          22.7894   73.6677    3.6292 C.3     1  UNL1        0.1715
     34 C          24.3033   73.7672    3.8265 C.3     1  UNL1        0.1694
     35 C          22.3750   72.2205    3.3695 C.3     1  UNL1        0.1967
     36 C          25.0572   73.0453    2.7016 C.3     1  UNL1        0.1761
     37 C          23.2193   71.5806    2.2660 C.3     1  UNL1        0.2704
     38 H          22.4090   75.0483    4.9927 H       1  UNL1        0.2105
     39 H          24.1717   75.5921    4.5673 H       1  UNL1        0.2105
     40 H          20.4715   72.5878    3.7280 H       1  UNL1        0.2106
     41 O          26.9965   71.6554    2.8298 O.3     1  UNL1       -0.3794
     42 C          26.5614   72.9962    2.9610 C.3     1  UNL1        0.1693
     43 H          27.9522   71.6089    2.9919 H       1  UNL1        0.2105
@<TRIPOS>UNITY_ATOM_ATTR
2 1
charge -1
26 1
charge -1
@<TRIPOS>BOND
     1    25    28    1
     2    25    24    1
     3    25    26    1
     4    25    27    2
     5     1     4    1
     6     1    24    1
     7     1     2    1
     8     1     3    2
     9     6    11    1
    10     6    12    1
    11    29    36    1
    12    29    37    1
    13     7     9    1
    14     7    13    1
    15     8    10    1
    16     8    14    1
    17    28    37    1
    18     4     5    1
    19    30    33    1
    20    30    38    1
    21    31    34    1
    22    31    39    1
    23    32    35    1
    24    32    40    1
    25    41    42    1
    26    41    43    1
    27    15    19    2
    28    16    22    2
    29    17    12    1
    30    17    19   ar
    31    17    20   ar
    32    18    19   ar
    33    18    22   ar
    34    18    23    1
    35     9    10    1
    36     9    11    1
    37    10    12    1
    38    11     5    1
    39    33    34    1
    40    33    35    1
    41    34    36    1
    42    35    37    1
    43    36    42    1
    44    20    21   ar
    45    21    22   ar
@<TRIPOS>MOLECULE
*****
 43 45 0 0 0
SMALL
GASTEIGER

@<TRIPOS>ATOM
      1 P          23.3936   71.8046   -3.2919 P.3     1  UNL1        0.2189
      2 O          24.1037   72.9661   -4.1661 O.co2   1  UNL1       -0.4371
      3 O          24.2791   70.6455   -2.9399 O.2     1  UNL1       -0.5170
      4 O          22.0628   71.4409   -4.1372 O.3     1  UNL1       -0.3112
      5 C          21.6066   72.3643   -5.1103 C.3     1  UNL1        0.1811
      6 O          20.5483   70.4432   -6.0918 O.3     1  UNL1       -0.3308
      7 O          20.7341   71.9075   -8.7018 O.3     1  UNL1       -0.3794
      8 O          18.1319   72.2975   -7.9853 O.3     1  UNL1       -0.3779
      9 C          20.4870   72.4220   -7.3943 C.3     1  UNL1        0.1713
     10 C          19.0766   72.0878   -6.9556 C.3     1  UNL1        0.1895
     11 C          21.3257   71.6189   -6.4079 C.3     1  UNL1        0.1764
     12 C          19.2052   70.6240   -6.5694 C.3     1  UNL1        0.2383
     13 H          20.2095   72.4050   -9.3493 H       1  UNL1        0.2105
     14 H          18.0867   73.2434   -8.1950 H       1  UNL1        0.2106
     15 O          16.5368   69.8130   -7.0167 O.2     1  UNL1       -0.2464
     16 O          15.7726   69.2081   -2.5121 O.2     1  UNL1       -0.2670
     17 N          18.2868   70.2486   -5.5317 N.ar    1  UNL1       -0.2551
     18 N          16.1586   69.5123   -4.7734 N.ar    1  UNL1       -0.2743
     19 C          16.9684   69.8579   -5.8628 C.ar    1  UNL1        0.3323
     20 C          18.6962   70.2698   -4.2029 C.ar    1  UNL1        0.0869
     21 C          17.9113   69.9386   -3.1755 C.ar    1  UNL1        0.0795
     22 C          16.5191   69.5187   -3.4352 C.ar    1  UNL1        0.2626
     23 H          15.2358   69.2372   -4.9799 H       1  UNL1        0.1734
     24 O          22.8072   72.6134   -2.0211 O.3     1  UNL1       -0.2703
     25 P          21.4877   72.3643   -1.1212 P.3     1  UNL1        0.2208
     26 O          21.3673   70.7514   -1.0777 O.co2   1  UNL1       -0.4371
     27 O          20.2584   73.0637   -1.6247 O.2     1  UNL1       -0.5170
     28 O          21.9288   72.7805    0.3746 O.3     1  UNL1       -0.2858
     29 O          23.0684   71.1762    1.6952 O.3     1  UNL1       -0.3258
     30 O          21.7907   73.7115    4.6936 O.3     1  UNL1       -0.3794
     31 O          24.5690   73.6604    3.9680 O.3     1  UNL1       -0.3794
     32 O          20.0639   73.1581    2.4372 O.3     1  UNL1       -0.3775
     33 C          22.2664   73.3733    3.3880 C.3     1  UNL1        0.1715
     34 C          23.6247   72.6848    3.5359 C.3     1  UNL1        0.1694
     35 C          21.2608   72.4398    2.7166 C.3     1  UNL1        0.1967
     36 C          24.0744   72.0562    2.2101 C.3     1  UNL1        0.1761
     37 C          21.8257   71.8307    1.4321 C.3     1  UNL1        0.2704
     38 H          22.4245   74.3045    5.1251 H       1  UNL1        0.2105
     39 H          24.2730   74.0499    4.8057 H       1  UNL1        0.2105
     40 H          19.7161   73.5385    3.2583 H       1  UNL1        0.2106
     41 O          24.9849   69.8992    2.6867 O.3     1  UNL1       -0.3794
     42 C          25.3489   71.2306    2.3719 C.3     1  UNL1        0.1693
     43 H          25.7861   69.3620    2.7923 H       1  UNL1        0.2105
@<TRIPOS>UNITY_ATOM_ATTR
2 1
charge -1
26 1
charge -1
@<TRIPOS>BOND
     1    25    28    1
     2    25    24    1
     3    25    26    1
     4    25    27    2
     5     1     4    1
     6     1    24    1
     7     1     2    1
     8     1     3    2
     9     6    11    1
    10     6    12    1
    11    29    36    1
    12    29    37    1
    13     7     9    1
    14     7    13    1
    15     8    10    1
    16     8    14    1
    17    28    37    1
    18     4     5    1
    19    30    33    1
    20    30    38    1
    21    31    34    1
    22    31    39    1
    23    32    35    1
    24    32    40    1
    25    41    42    1
    26    41    43    1
    27    15    19    2
    28    16    22    2
    29    17    12    1
    30    17    19   ar
    31    17    20   ar
    32    18    19   ar
    33    18    22   ar
    34    18    23    1
    35     9    10    1
    36     9    11    1
    37    10    12    1
    38    11     5    1
    39    33    34    1
    40    33    35    1
    41    34    36    1
    42    35    37    1
    43    36    42    1
    44    20    21   ar
    45    21    22   ar
@<TRIPOS>MOLECULE
*****
 43 45 0 0 0
SMALL
GASTEIGER

@<TRIPOS>ATOM
      1 P          21.4028   71.3040   -1.8722 P.3     1  UNL1        0.2189
      2 O          20.8647   72.7786   -1.4807 O.co2   1  UNL1       -0.4371
      3 O          22.4527   71.2762   -2.9438 O.2     1  UNL1       -0.5170
      4 O          20.0532   70.4695   -2.1890 O.3     1  UNL1       -0.3112
      5 C          19.5959   70.4067   -3.5287 C.3     1  UNL1        0.1811
      6 O          17.8828   71.4798   -4.8277 O.3     1  UNL1       -0.3308
      7 O          15.9176   70.0832   -3.0449 O.3     1  UNL1       -0.3794
      8 O          15.8895   68.5342   -5.2891 O.3     1  UNL1       -0.3779
      9 C          17.1754   69.6230   -3.5363 C.3     1  UNL1        0.1713
     10 C          17.0666   69.2618   -5.0030 C.3     1  UNL1        0.1895
     11 C          18.1287   70.8111   -3.5713 C.3     1  UNL1        0.1764
     12 C          17.0849   70.6284   -5.6664 C.3     1  UNL1        0.2383
     13 H          15.2922   69.3417   -3.0133 H       1  UNL1        0.2105
     14 H          15.9257   67.6727   -4.8449 H       1  UNL1        0.2106
     15 O          15.5976   70.4766   -8.0628 O.2     1  UNL1       -0.2464
     16 O          19.4136   70.4938  -10.6472 O.2     1  UNL1       -0.2670
     17 N          17.6641   70.5922   -6.9796 N.ar    1  UNL1       -0.2551
     18 N          17.4988   70.4854   -9.3476 N.ar    1  UNL1       -0.2743
     19 C          16.8285   70.5147   -8.1181 C.ar    1  UNL1        0.3323
     20 C          19.0461   70.6337   -7.1288 C.ar    1  UNL1        0.0869
     21 C          19.6698   70.6037   -8.3084 C.ar    1  UNL1        0.0795
     22 C          18.8697   70.5231   -9.5475 C.ar    1  UNL1        0.2626
     23 H          16.9371   70.4312  -10.1547 H       1  UNL1        0.1734
     24 O          21.8774   70.7007   -0.4496 O.3     1  UNL1       -0.2703
     25 P          22.9655   71.2346    0.6199 P.3     1  UNL1        0.2208
     26 O          23.7366   72.4051   -0.1881 O.co2   1  UNL1       -0.4371
     27 O          23.8648   70.1651    1.1689 O.2     1  UNL1       -0.5170
     28 O          22.0952   72.0135    1.7339 O.3     1  UNL1       -0.2858
     29 O          21.0309   74.0692    2.2417 O.3     1  UNL1       -0.3258
     30 O          23.8468   74.0203    5.2616 O.3     1  UNL1       -0.3794
     31 O          21.0846   73.5487    5.8907 O.3     1  UNL1       -0.3794
     32 O          24.5437   73.0583    2.6218 O.3     1  UNL1       -0.3775
     33 C          22.9080   73.4494    4.3461 C.3     1  UNL1        0.1715
     34 C          21.5309   74.0506    4.6341 C.3     1  UNL1        0.1694
     35 C          23.3461   73.7687    2.9180 C.3     1  UNL1        0.1967
     36 C          20.5281   73.6926    3.5290 C.3     1  UNL1        0.1761
     37 C          22.2574   73.4195    1.9017 C.3     1  UNL1        0.2704
     38 H          23.5747   73.8208    6.1702 H       1  UNL1        0.2105
     39 H          21.7269   73.7812    6.5797 H       1  UNL1        0.2105
     40 H          25.2251   73.2883    3.2719 H       1  UNL1        0.2106
     41 O          18.4435   73.7196    4.6963 O.3     1  UNL1       -0.3794
     42 C          19.1929   74.4104    3.7138 C.3     1  UNL1        0.1693
     43 H          17.5912   74.1654    4.8247 H       1  UNL1        0.2105
@<TRIPOS>UNITY_ATOM_ATTR
2 1
charge -1
26 1
charge -1
@<TRIPOS>BOND
     1    25    28    1
     2    25    24    1
     3    25    26    1
     4    25    27    2
     5     1     4    1
     6     1    24    1
     7     1     2    1
     8     1     3    2
     9     6    11    1
    10     6    12    1
    11    29    36    1
    12    29    37    1
    13     7     9    1
    14     7    13    1
    15     8    10    1
    16     8    14    1
    17    28    37    1
    18     4     5    1
    19    30    33    1
    20    30    38    1
    21    31    34    1
    22    31    39    1
    23    32    35    1
    24    32    40    1
    25    41    42    1
    26    41    43    1
    27    15    19    2
    28    16    22    2
    29    17    12    1
    30    17    19   ar
    31    17    20   ar
    32    18    19   ar
    33    18    22   ar
    34    18    23    1
    35     9    10    1
    36     9    11    1
    37    10    12    1
    38    11     5    1
    39    33    34    1
    40    33    35    1
    41    34    36    1
    42    35    37    1
    43    36    42    1
    44    20    21   ar
    45    21    22   ar
@<TRIPOS>MOLECULE
*****
 43 45 0 0 0
SMALL
GASTEIGER

@<TRIPOS>ATOM
      1 P          22.9260   71.8059   -3.4304 P.3     1  UNL1        0.2189
      2 O          24.1579   70.8373   -3.0285 O.co2   1  UNL1       -0.4371
      3 O          23.0890   72.5309   -4.7339 O.2     1  UNL1       -0.5170
      4 O          22.7264   72.7420   -2.1258 O.3     1  UNL1       -0.3112
      5 C          23.6434   72.6117   -1.0535 C.3     1  UNL1        0.1811
      6 O          24.4940   70.9618    0.4723 O.3     1  UNL1       -0.3308
      7 O          21.6299   70.2640    1.0208 O.3     1  UNL1       -0.3794
      8 O          22.2888   71.8047    3.1722 O.3     1  UNL1       -0.3779
      9 C          22.2132   71.5389    0.7567 C.3     1  UNL1        0.1713
     10 C          22.9887   72.0226    1.9642 C.3     1  UNL1        0.1895
     11 C          23.3182   71.3448   -0.2742 C.3     1  UNL1        0.1764
     12 C          24.2629   71.2005    1.8704 C.3     1  UNL1        0.2383
     13 H          20.9210   70.3625    1.6763 H       1  UNL1        0.2105
     14 H          21.4865   72.3497    3.1840 H       1  UNL1        0.2106
     15 O          24.2366   73.8861    2.7449 O.2     1  UNL1       -0.2464
     16 O          28.6790   73.7252    3.9617 O.2     1  UNL1       -0.2670
     17 N          25.3985   71.8857    2.4203 N.ar    1  UNL1       -0.2551
     18 N          26.4486   73.8037    3.3502 N.ar    1  UNL1       -0.2743
     19 C          25.2799   73.2347    2.8284 C.ar    1  UNL1        0.3323
     20 C          26.6127   71.2205    2.5508 C.ar    1  UNL1        0.0869
     21 C          27.7183   71.7778    3.0493 C.ar    1  UNL1        0.0795
     22 C          27.6794   73.1843    3.4990 C.ar    1  UNL1        0.2626
     23 H          26.3898   74.7429    3.6407 H       1  UNL1        0.1734
     24 O          21.6495   70.8161   -3.3661 O.3     1  UNL1       -0.2703
     25 P          20.1410   71.0621   -2.8401 P.3     1  UNL1        0.2208
     26 O          20.0366   72.6743   -2.7531 O.co2   1  UNL1       -0.4371
     27 O          19.8120   70.3503   -1.5599 O.2     1  UNL1       -0.5170
     28 O          19.2020   70.6596   -4.0896 O.3     1  UNL1       -0.2858
     29 O          19.4362   72.0757   -5.9755 O.3     1  UNL1       -0.3258
     30 O          15.9876   70.0852   -7.0692 O.3     1  UNL1       -0.3794
     31 O          18.4533   69.4966   -8.4191 O.3     1  UNL1       -0.3794
     32 O          16.4092   70.8309   -4.3041 O.3     1  UNL1       -0.3775
     33 C          17.2774   70.2225   -6.4668 C.3     1  UNL1        0.1715
     34 C          18.2762   70.6169   -7.5566 C.3     1  UNL1        0.1694
     35 C          17.2107   71.2978   -5.3839 C.3     1  UNL1        0.1967
     36 C          19.6201   71.0413   -6.9491 C.3     1  UNL1        0.1761
     37 C          18.6040   71.6818   -4.8826 C.3     1  UNL1        0.2704
     38 H          16.0230   69.4035   -7.7574 H       1  UNL1        0.2105
     39 H          17.5973   69.2384   -8.7956 H       1  UNL1        0.2105
     40 H          15.5297   70.5914   -4.6344 H       1  UNL1        0.2106
     41 O          20.8035   72.9604   -7.7401 O.3     1  UNL1       -0.3794
     42 C          20.5779   71.5881   -8.0054 C.3     1  UNL1        0.1693
     43 H          21.4117   73.3218   -8.4043 H       1  UNL1        0.2105
@<TRIPOS>UNITY_ATOM_ATTR
2 1
charge -1
26 1
charge -1
@<TRIPOS>BOND
     1    25    28    1
     2    25    24    1
     3    25    26    1
     4    25    27    2
     5     1     4    1
     6     1    24    1
     7     1     2    1
     8     1     3    2
     9     6    11    1
    10     6    12    1
    11    29    36    1
    12    29    37    1
    13     7     9    1
    14     7    13    1
    15     8    10    1
    16     8    14    1
    17    28    37    1
    18     4     5    1
    19    30    33    1
    20    30    38    1
    21    31    34    1
    22    31    39    1
    23    32    35    1
    24    32    40    1
    25    41    42    1
    26    41    43    1
    27    15    19    2
    28    16    22    2
    29    17    12    1
    30    17    19   ar
    31    17    20   ar
    32    18    19   ar
    33    18    22   ar
    34    18    23    1
    35     9    10    1
    36     9    11    1
    37    10    12    1
    38    11     5    1
    39    33    34    1
    40    33    35    1
    41    34    36    1
    42    35    37    1
    43    36    42    1
    44    20    21   ar
    45    21    22   ar
@<TRIPOS>MOLECULE
*****
 43 45 0 0 0
SMALL
GASTEIGER

@<TRIPOS>ATOM
      1 P          20.4355   71.1791   -1.3420 P.3     1  UNL1        0.2189
      2 O          20.7017   70.5209    0.1117 O.co2   1  UNL1       -0.4371
      3 O          19.9986   72.6143   -1.3175 O.2     1  UNL1       -0.5170
      4 O          19.4146   70.1459   -2.0550 O.3     1  UNL1       -0.3112
      5 C          19.1242   70.3234   -3.4305 C.3     1  UNL1        0.1811
      6 O          17.4769   71.3588   -4.8405 O.3     1  UNL1       -0.3308
      7 O          15.4372   69.8254   -3.2660 O.3     1  UNL1       -0.3794
      8 O          15.6661   68.3440   -5.5441 O.3     1  UNL1       -0.3779
      9 C          16.7512   69.4354   -3.6618 C.3     1  UNL1        0.1713
     10 C          16.7808   69.1135   -5.1413 C.3     1  UNL1        0.1895
     11 C          17.6484   70.6644   -3.5856 C.3     1  UNL1        0.1764
     12 C          16.7911   70.4987   -5.7650 C.3     1  UNL1        0.2383
     13 H          14.8461   69.0567   -3.3062 H       1  UNL1        0.2105
     14 H          15.7050   67.4721   -5.1209 H       1  UNL1        0.2106
     15 O          15.5086   70.6084   -8.2793 O.2     1  UNL1       -0.2464
     16 O          19.5279   70.6007  -10.5346 O.2     1  UNL1       -0.2670
     17 N          17.4780   70.5268   -7.0255 N.ar    1  UNL1       -0.2551
     18 N          17.5109   70.6047   -9.4002 N.ar    1  UNL1       -0.2743
     19 C          16.7401   70.5809   -8.2309 C.ar    1  UNL1        0.3323
     20 C          18.8680   70.5012   -7.0578 C.ar    1  UNL1        0.0869
     21 C          19.5881   70.5231   -8.1813 C.ar    1  UNL1        0.0795
     22 C          18.8941   70.5795   -9.4840 C.ar    1  UNL1        0.2626
     23 H          17.0184   70.6419  -10.2521 H       1  UNL1        0.1734
     24 O          21.8260   70.9123   -2.1219 O.3     1  UNL1       -0.2703
     25 P          23.2745   71.6156   -1.9800 P.3     1  UNL1        0.2208
     26 O          24.2124   70.7346   -2.9608 O.co2   1  UNL1       -0.4371
     27 O          23.7752   71.7139   -0.5680 O.2     1  UNL1       -0.5170
     28 O          23.1156   73.0340   -2.7336 O.3     1  UNL1       -0.2858
     29 O          23.7578   72.8267   -5.0054 O.3     1  UNL1       -0.3258
     30 O          23.2490   76.9209   -4.8345 O.3     1  UNL1       -0.3794
     31 O          21.3293   75.3109   -6.2382 O.3     1  UNL1       -0.3794
     32 O          24.4170   75.5160   -2.5891 O.3     1  UNL1       -0.3775
     33 C          22.9636   75.5578   -4.5093 C.3     1  UNL1        0.1715
     34 C          22.5947   74.8240   -5.8001 C.3     1  UNL1        0.1694
     35 C          24.1986   74.9286   -3.8672 C.3     1  UNL1        0.1967
     36 C          22.5354   73.3068   -5.5773 C.3     1  UNL1        0.1761
     37 C          24.0559   73.4112   -3.7360 C.3     1  UNL1        0.2704
     38 H          22.4687   77.3264   -5.2421 H       1  UNL1        0.2105
     39 H          21.3802   76.2701   -6.3747 H       1  UNL1        0.2105
     40 H          24.5060   76.4765   -2.6858 H       1  UNL1        0.2106
     41 O          22.9568   73.2606   -7.9287 O.3     1  UNL1       -0.3794
     42 C          22.3246   72.5446   -6.8837 C.3     1  UNL1        0.1693
     43 H          22.8312   72.7870   -8.7663 H       1  UNL1        0.2105
@<TRIPOS>UNITY_ATOM_ATTR
2 1
charge -1
26 1
charge -1
@<TRIPOS>BOND
     1    25    28    1
     2    25    24    1
     3    25    26    1
     4    25    27    2
     5     1     4    1
     6     1    24    1
     7     1     2    1
     8     1     3    2
     9     6    11    1
    10     6    12    1
    11    29    36    1
    12    29    37    1
    13     7     9    1
    14     7    13    1
    15     8    10    1
    16     8    14    1
    17    28    37    1
    18     4     5    1
    19    30    33    1
    20    30    38    1
    21    31    34    1
    22    31    39    1
    23    32    35    1
    24    32    40    1
    25    41    42    1
    26    41    43    1
    27    15    19    2
    28    16    22    2
    29    17    12    1
    30    17    19   ar
    31    17    20   ar
    32    18    19   ar
    33    18    22   ar
    34    18    23    1
    35     9    10    1
    36     9    11    1
    37    10    12    1
    38    11     5    1
    39    33    34    1
    40    33    35    1
    41    34    36    1
    42    35    37    1
    43    36    42    1
    44    20    21   ar
    45    21    22   ar
@<TRIPOS>MOLECULE
*****
 43 45 0 0 0
SMALL
GASTEIGER

@<TRIPOS>ATOM
      1 P          22.1870   72.5612   -2.3394 P.3     1  UNL1        0.2189
      2 O          21.0244   73.6726   -2.1644 O.co2   1  UNL1       -0.4371
      3 O          23.5867   73.0780   -2.1811 O.2     1  UNL1       -0.5170
      4 O          21.8506   71.8681   -3.7622 O.3     1  UNL1       -0.3112
      5 C          21.4857   72.6997   -4.8499 C.3     1  UNL1        0.1811
      6 O          20.6930   70.6484   -5.8181 O.3     1  UNL1       -0.3308
      7 O          21.1068   71.9635   -8.4808 O.3     1  UNL1       -0.3794
      8 O          18.4145   72.1968   -8.1147 O.3     1  UNL1       -0.3779
      9 C          20.6622   72.5351   -7.2516 C.3     1  UNL1        0.1713
     10 C          19.2337   72.1215   -6.9657 C.3     1  UNL1        0.1895
     11 C          21.4223   71.8587   -6.1175 C.3     1  UNL1        0.1764
     12 C          19.4117   70.6976   -6.4669 C.3     1  UNL1        0.2383
     13 H          20.6356   72.3801   -9.2200 H       1  UNL1        0.2105
     14 H          18.3319   73.1223   -8.3929 H       1  UNL1        0.2106
     15 O          16.8388   69.7753   -7.1791 O.2     1  UNL1       -0.2464
     16 O          15.6009   69.2644   -2.7692 O.2     1  UNL1       -0.2670
     17 N          18.3973   70.3163   -5.5252 N.ar    1  UNL1       -0.2551
     18 N          16.2246   69.5215   -4.9827 N.ar    1  UNL1       -0.2743
     19 C          17.1379   69.8675   -5.9868 C.ar    1  UNL1        0.3323
     20 C          18.6558   70.3888   -4.1607 C.ar    1  UNL1        0.0869
     21 C          17.7737   70.0563   -3.2160 C.ar    1  UNL1        0.0795
     22 C          16.4341   69.5776   -3.6139 C.ar    1  UNL1        0.2626
     23 H          15.3404   69.2065   -5.2807 H       1  UNL1        0.1734
     24 O          21.7653   71.4229   -1.2721 O.3     1  UNL1       -0.2703
     25 P          22.2479   71.1626    0.2486 P.3     1  UNL1        0.2208
     26 O          23.8224   70.8278    0.0860 O.co2   1  UNL1       -0.4371
     27 O          21.4618   70.1075    0.9716 O.2     1  UNL1       -0.5170
     28 O          22.2105   72.6187    0.9439 O.3     1  UNL1       -0.2858
     29 O          23.7401   73.7562    2.3520 O.3     1  UNL1       -0.3258
     30 O          20.2093   74.8528    4.1911 O.3     1  UNL1       -0.3794
     31 O          21.6728   76.7927    2.6604 O.3     1  UNL1       -0.3794
     32 O          20.5173   72.1743    3.1373 O.3     1  UNL1       -0.3775
     33 C          21.0547   74.5216    3.0861 C.3     1  UNL1        0.1715
     34 C          22.2060   75.5284    3.0445 C.3     1  UNL1        0.1694
     35 C          21.5880   73.1025    3.2733 C.3     1  UNL1        0.1967
     36 C          23.2941   75.0852    2.0573 C.3     1  UNL1        0.1761
     37 C          22.6994   72.7802    2.2729 C.3     1  UNL1        0.2704
     38 H          19.8670   75.7525    4.0782 H       1  UNL1        0.2105
     39 H          20.9865   77.0608    3.2916 H       1  UNL1        0.2105
     40 H          19.8204   72.3889    3.7761 H       1  UNL1        0.2106
     41 O          25.6606   75.2278    1.7601 O.3     1  UNL1       -0.3794
     42 C          24.5223   75.9909    2.1153 C.3     1  UNL1        0.1693
     43 H          26.4499   75.7915    1.7923 H       1  UNL1        0.2105
@<TRIPOS>UNITY_ATOM_ATTR
2 1
charge -1
26 1
charge -1
@<TRIPOS>BOND
     1    25    28    1
     2    25    24    1
     3    25    26    1
     4    25    27    2
     5     1     4    1
     6     1    24    1
     7     1     2    1
     8     1     3    2
     9     6    11    1
    10     6    12    1
    11    29    36    1
    12    29    37    1
    13     7     9    1
    14     7    13    1
    15     8    10    1
    16     8    14    1
    17    28    37    1
    18     4     5    1
    19    30    33    1
    20    30    38    1
    21    31    34    1
    22    31    39    1
    23    32    35    1
    24    32    40    1
    25    41    42    1
    26    41    43    1
    27    15    19    2
    28    16    22    2
    29    17    12    1
    30    17    19   ar
    31    17    20   ar
    32    18    19   ar
    33    18    22   ar
    34    18    23    1
    35     9    10    1
    36     9    11    1
    37    10    12    1
    38    11     5    1
    39    33    34    1
    40    33    35    1
    41    34    36    1
    42    35    37    1
    43    36    42    1
    44    20    21   ar
    45    21    22   ar
@<TRIPOS>MOLECULE
*****
 43 45 0 0 0
SMALL
GASTEIGER

@<TRIPOS>ATOM
      1 P          21.3108   72.7628   -4.7183 P.3     1  UNL1        0.2189
      2 O          20.4908   73.9322   -5.4783 O.co2   1  UNL1       -0.4371
      3 O          21.7992   71.6537   -5.6029 O.2     1  UNL1       -0.5170
      4 O          20.3269   72.3188   -3.5130 O.3     1  UNL1       -0.3112
      5 C          19.6174   71.0983   -3.6343 C.3     1  UNL1        0.1811
      6 O          17.8080   71.9195   -4.9855 O.3     1  UNL1       -0.3308
      7 O          15.9811   70.5715   -3.0269 O.3     1  UNL1       -0.3794
      8 O          16.0201   68.8130   -5.1108 O.3     1  UNL1       -0.3779
      9 C          17.2588   70.1532   -3.5043 C.3     1  UNL1        0.1713
     10 C          17.1479   69.6441   -4.9263 C.3     1  UNL1        0.1895
     11 C          18.1246   71.3948   -3.6775 C.3     1  UNL1        0.1764
     12 C          17.0566   70.9377   -5.7178 C.3     1  UNL1        0.2383
     13 H          15.4105   69.7955   -2.9082 H       1  UNL1        0.2105
     14 H          16.1257   68.0035   -4.5872 H       1  UNL1        0.2106
     15 O          15.5654   70.2658   -8.0206 O.2     1  UNL1       -0.2464
     16 O          19.2924   70.4885  -10.7227 O.2     1  UNL1       -0.2670
     17 N          17.6118   70.8136   -7.0360 N.ar    1  UNL1       -0.2551
     18 N          17.4224   70.3774   -9.3642 N.ar    1  UNL1       -0.2743
     19 C          16.7766   70.4708   -8.1247 C.ar    1  UNL1        0.3323
     20 C          18.9702   71.0312   -7.2391 C.ar    1  UNL1        0.0869
     21 C          19.5709   70.9369   -8.4272 C.ar    1  UNL1        0.0795
     22 C          18.7695   70.5831   -9.6166 C.ar    1  UNL1        0.2626
     23 H          16.8605   70.1395  -10.1371 H       1  UNL1        0.1734
     24 O          22.4789   73.5767   -3.9527 O.3     1  UNL1       -0.2703
     25 P          23.8715   73.0751   -3.3031 P.3     1  UNL1        0.2208
     26 O          24.9775   74.0010   -4.0359 O.co2   1  UNL1       -0.4371
     27 O          24.1150   71.5994   -3.4331 O.2     1  UNL1       -0.5170
     28 O          23.8309   73.6149   -1.7826 O.3     1  UNL1       -0.2858
     29 O          22.3592   72.2914   -0.4791 O.3     1  UNL1       -0.3258
     30 O          23.1757   75.2671    2.2648 O.3     1  UNL1       -0.3794
     31 O          24.3002   72.6504    2.6341 O.3     1  UNL1       -0.3794
     32 O          22.8571   75.9321   -0.5345 O.3     1  UNL1       -0.3775
     33 C          23.4688   74.3679    1.1920 C.3     1  UNL1        0.1715
     34 C          23.2667   72.9377    1.6963 C.3     1  UNL1        0.1694
     35 C          22.5312   74.6633    0.0228 C.3     1  UNL1        0.1967
     36 C          23.3016   71.9317    0.5378 C.3     1  UNL1        0.1761
     37 C          22.6081   73.5769   -1.0514 C.3     1  UNL1        0.2704
     38 H          23.7679   75.0852    3.0102 H       1  UNL1        0.2105
     39 H          24.2674   73.2931    3.3602 H       1  UNL1        0.2105
     40 H          22.8044   76.6112    0.1553 H       1  UNL1        0.2106
     41 O          21.5362   70.3881    0.9958 O.3     1  UNL1       -0.3794
     42 C          22.9459   70.5191    0.9962 C.3     1  UNL1        0.1693
     43 H          21.2951   69.4938    1.2851 H       1  UNL1        0.2105
@<TRIPOS>UNITY_ATOM_ATTR
2 1
charge -1
26 1
charge -1
@<TRIPOS>BOND
     1    25    28    1
     2    25    24    1
     3    25    26    1
     4    25    27    2
     5     1     4    1
     6     1    24    1
     7     1     2    1
     8     1     3    2
     9     6    11    1
    10     6    12    1
    11    29    36    1
    12    29    37    1
    13     7     9    1
    14     7    13    1
    15     8    10    1
    16     8    14    1
    17    28    37    1
    18     4     5    1
    19    30    33    1
    20    30    38    1
    21    31    34    1
    22    31    39    1
    23    32    35    1
    24    32    40    1
    25    41    42    1
    26    41    43    1
    27    15    19    2
    28    16    22    2
    29    17    12    1
    30    17    19   ar
    31    17    20   ar
    32    18    19   ar
    33    18    22   ar
    34    18    23    1
    35     9    10    1
    36     9    11    1
    37    10    12    1
    38    11     5    1
    39    33    34    1
    40    33    35    1
    41    34    36    1
    42    35    37    1
    43    36    42    1
    44    20    21   ar
    45    21    22   ar
@<TRIPOS>MOLECULE
*****
 43 45 0 0 0
SMALL
GASTEIGER

@<TRIPOS>ATOM
      1 P          20.7082   70.7067   -3.6737 P.3     1  UNL1        0.2189
      2 O          21.3479   71.6637   -4.8105 O.co2   1  UNL1       -0.4371
      3 O          20.5464   69.2693   -4.0728 O.2     1  UNL1       -0.5170
      4 O          19.3506   71.4726   -3.2400 O.3     1  UNL1       -0.3112
      5 C          18.9959   72.6606   -3.9261 C.3     1  UNL1        0.1811
      6 O          17.2602   72.8020   -5.5817 O.3     1  UNL1       -0.3308
      7 O          15.4372   71.6502   -3.4982 O.3     1  UNL1       -0.3794
      8 O          15.9994   69.4855   -5.0585 O.3     1  UNL1       -0.3779
      9 C          16.8125   71.3666   -3.7501 C.3     1  UNL1        0.1713
     10 C          16.9552   70.5247   -5.0009 C.3     1  UNL1        0.1895
     11 C          17.4919   72.6665   -4.1624 C.3     1  UNL1        0.1764
     12 C          16.7634   71.5569   -6.0990 C.3     1  UNL1        0.2383
     13 H          14.9824   70.8350   -3.2328 H       1  UNL1        0.2105
     14 H          16.1635   68.8549   -4.3400 H       1  UNL1        0.2106
     15 O          15.5706   70.6066   -8.4764 O.2     1  UNL1       -0.2464
     16 O          19.6403   70.3197  -10.6203 O.2     1  UNL1       -0.2670
     17 N          17.4875   71.2263   -7.2939 N.ar    1  UNL1       -0.2551
     18 N          17.5979   70.4647   -9.5421 N.ar    1  UNL1       -0.2743
     19 C          16.7934   70.7563   -8.4331 C.ar    1  UNL1        0.3323
     20 C          18.8704   71.3696   -7.3282 C.ar    1  UNL1        0.0869
     21 C          19.6231   71.0859   -8.3932 C.ar    1  UNL1        0.0795
     22 C          18.9757   70.5894   -9.6246 C.ar    1  UNL1        0.2626
     23 H          17.1362   70.1353  -10.3471 H       1  UNL1        0.1734
     24 O          21.6819   70.9473   -2.4060 O.3     1  UNL1       -0.2703
     25 P          23.1370   71.6437   -2.3021 P.3     1  UNL1        0.2208
     26 O          22.9090   73.0854   -3.0000 O.co2   1  UNL1       -0.4371
     27 O          24.2505   70.8347   -2.9017 O.2     1  UNL1       -0.5170
     28 O          23.3204   71.9747   -0.7331 O.3     1  UNL1       -0.2858
     29 O          24.5669   70.9304    0.9909 O.3     1  UNL1       -0.3258
     30 O          21.1301   71.8124    3.1030 O.3     1  UNL1       -0.3794
     31 O          23.5276   73.3115    3.6060 O.3     1  UNL1       -0.3794
     32 O          20.9483   70.9376    0.3497 O.3     1  UNL1       -0.3775
     33 C          22.1516   72.0316    2.1263 C.3     1  UNL1        0.1715
     34 C          23.4982   72.1048    2.8489 C.3     1  UNL1        0.1694
     35 C          22.1406   70.8780    1.1251 C.3     1  UNL1        0.1967
     36 C          24.6644   72.0709    1.8519 C.3     1  UNL1        0.1761
     37 C          23.3683   70.9100    0.2131 C.3     1  UNL1        0.2704
     38 H          21.1314   72.5417    3.7416 H       1  UNL1        0.2105
     39 H          22.7859   73.3205    4.2312 H       1  UNL1        0.2105
     40 H          20.1784   70.9163    0.9385 H       1  UNL1        0.2106
     41 O          26.6292   70.7575    2.2029 O.3     1  UNL1       -0.3794
     42 C          26.0166   71.9839    2.5561 C.3     1  UNL1        0.1693
     43 H          27.4910   70.6884    2.6436 H       1  UNL1        0.2105
@<TRIPOS>UNITY_ATOM_ATTR
2 1
charge -1
26 1
charge -1
@<TRIPOS>BOND
     1    25    28    1
     2    25    24    1
     3    25    26    1
     4    25    27    2
     5     1     4    1
     6     1    24    1
     7     1     2    1
     8     1     3    2
     9     6    11    1
    10     6    12    1
    11    29    36    1
    12    29    37    1
    13     7     9    1
    14     7    13    1
    15     8    10    1
    16     8    14    1
    17    28    37    1
    18     4     5    1
    19    30    33    1
    20    30    38    1
    21    31    34    1
    22    31    39    1
    23    32    35    1
    24    32    40    1
    25    41    42    1
    26    41    43    1
    27    15    19    2
    28    16    22    2
    29    17    12    1
    30    17    19   ar
    31    17    20   ar
    32    18    19   ar
    33    18    22   ar
    34    18    23    1
    35     9    10    1
    36     9    11    1
    37    10    12    1
    38    11     5    1
    39    33    34    1
    40    33    35    1
    41    34    36    1
    42    35    37    1
    43    36    42    1
    44    20    21   ar
    45    21    22   ar
@<TRIPOS>MOLECULE
*****
 43 45 0 0 0
SMALL
GASTEIGER

@<TRIPOS>ATOM
      1 P          20.3968   71.2675   -2.0440 P.3     1  UNL1        0.2189
      2 O          20.6526   70.3022   -3.3169 O.co2   1  UNL1       -0.4371
      3 O          20.3194   70.5642   -0.7208 O.2     1  UNL1       -0.5170
      4 O          19.0892   72.1236   -2.4622 O.3     1  UNL1       -0.3112
      5 C          18.7661   72.2361   -3.8373 C.3     1  UNL1        0.1811
      6 O          16.9821   72.0323   -5.4340 O.3     1  UNL1       -0.3308
      7 O          15.5455   70.4326   -3.3441 O.3     1  UNL1       -0.3794
      8 O          16.5220   68.5016   -5.0037 O.3     1  UNL1       -0.3779
      9 C          16.9388   70.4760   -3.6475 C.3     1  UNL1        0.1713
     10 C          17.2204   69.7280   -4.9339 C.3     1  UNL1        0.1895
     11 C          17.2916   71.9083   -4.0286 C.3     1  UNL1        0.1764
     12 C          16.7597   70.7238   -5.9847 C.3     1  UNL1        0.2383
     13 H          15.2965   69.5275   -3.0975 H       1  UNL1        0.2105
     14 H          16.8510   67.9024   -4.3157 H       1  UNL1        0.2106
     15 O          15.5782   70.6341   -8.5487 O.2     1  UNL1       -0.2464
     16 O          19.6759   70.2597  -10.6247 O.2     1  UNL1       -0.2670
     17 N          17.4941   70.6036   -7.2125 N.ar    1  UNL1       -0.2551
     18 N          17.6195   70.4479   -9.5803 N.ar    1  UNL1       -0.2743
     19 C          16.8049   70.5665   -8.4470 C.ar    1  UNL1        0.3323
     20 C          18.8822   70.5242   -7.1848 C.ar    1  UNL1        0.0869
     21 C          19.6444   70.4101   -8.2744 C.ar    1  UNL1        0.0795
     22 C          19.0027   70.3643   -9.6041 C.ar    1  UNL1        0.2626
     23 H          17.1612   70.4197  -10.4515 H       1  UNL1        0.1734
     24 O          21.5923   72.3491   -2.1620 O.3     1  UNL1       -0.2703
     25 P          23.1240   72.2987   -1.6480 P.3     1  UNL1        0.2208
     26 O          23.7957   73.5890   -2.3563 O.co2   1  UNL1       -0.4371
     27 O          23.8256   71.0019   -1.9307 O.2     1  UNL1       -0.5170
     28 O          23.0431   72.6883   -0.0838 O.3     1  UNL1       -0.2858
     29 O          24.9299   72.6044    1.3478 O.3     1  UNL1       -0.3258
     30 O          21.9450   72.1332    4.1619 O.3     1  UNL1       -0.3794
     31 O          23.3785   74.6176    4.0178 O.3     1  UNL1       -0.3794
     32 O          21.7017   70.8627    1.5722 O.3     1  UNL1       -0.3775
     33 C          22.5377   72.6420    2.9638 C.3     1  UNL1        0.1715
     34 C          23.7916   73.4305    3.3466 C.3     1  UNL1        0.1694
     35 C          22.8964   71.4726    2.0488 C.3     1  UNL1        0.1967
     36 C          24.6259   73.7804    2.1070 C.3     1  UNL1        0.1761
     37 C          23.7677   71.9212    0.8742 C.3     1  UNL1        0.2704
     38 H          21.7144   72.8707    4.7471 H       1  UNL1        0.2105
     39 H          22.8522   74.3828    4.7982 H       1  UNL1        0.2105
     40 H          21.1590   70.5829    2.3253 H       1  UNL1        0.2106
     41 O          26.0911   74.4062    3.8876 O.3     1  UNL1       -0.3794
     42 C          25.9580   74.4283    2.4783 C.3     1  UNL1        0.1693
     43 H          26.9346   74.8151    4.1386 H       1  UNL1        0.2105
@<TRIPOS>UNITY_ATOM_ATTR
2 1
charge -1
26 1
charge -1
@<TRIPOS>BOND
     1    25    28    1
     2    25    24    1
     3    25    26    1
     4    25    27    2
     5     1     4    1
     6     1    24    1
     7     1     2    1
     8     1     3    2
     9     6    11    1
    10     6    12    1
    11    29    36    1
    12    29    37    1
    13     7     9    1
    14     7    13    1
    15     8    10    1
    16     8    14    1
    17    28    37    1
    18     4     5    1
    19    30    33    1
    20    30    38    1
    21    31    34    1
    22    31    39    1
    23    32    35    1
    24    32    40    1
    25    41    42    1
    26    41    43    1
    27    15    19    2
    28    16    22    2
    29    17    12    1
    30    17    19   ar
    31    17    20   ar
    32    18    19   ar
    33    18    22   ar
    34    18    23    1
    35     9    10    1
    36     9    11    1
    37    10    12    1
    38    11     5    1
    39    33    34    1
    40    33    35    1
    41    34    36    1
    42    35    37    1
    43    36    42    1
    44    20    21   ar
    45    21    22   ar
@<TRIPOS>MOLECULE
*****
 43 45 0 0 0
SMALL
GASTEIGER

@<TRIPOS>ATOM
      1 P          20.4923   73.0513   -1.6216 P.3     1  UNL1        0.2189
      2 O          19.3180   73.9976   -1.0358 O.co2   1  UNL1       -0.4371
      3 O          21.4927   73.7498   -2.4948 O.2     1  UNL1       -0.5170
      4 O          19.6945   71.8236   -2.3102 O.3     1  UNL1       -0.3112
      5 C          19.2610   71.9667   -3.6517 C.3     1  UNL1        0.1811
      6 O          17.3242   71.9482   -5.0737 O.3     1  UNL1       -0.3308
      7 O          16.0309   70.2412   -2.9751 O.3     1  UNL1       -0.3794
      8 O          16.7616   68.4125   -4.8614 O.3     1  UNL1       -0.3779
      9 C          17.3890   70.2605   -3.4114 C.3     1  UNL1        0.1713
     10 C          17.5138   69.6053   -4.7711 C.3     1  UNL1        0.1895
     11 C          17.7626   71.7052   -3.7191 C.3     1  UNL1        0.1764
     12 C          16.9955   70.6947   -5.6946 C.3     1  UNL1        0.2383
     13 H          15.7695   69.3288   -2.7723 H       1  UNL1        0.2105
     14 H          17.1303   67.7509   -4.2556 H       1  UNL1        0.2106
     15 O          15.5582   70.6504   -8.1257 O.2     1  UNL1       -0.2464
     16 O          19.4289   70.5023  -10.6232 O.2     1  UNL1       -0.2670
     17 N          17.6023   70.6450   -6.9948 N.ar    1  UNL1       -0.2551
     18 N          17.4867   70.5769   -9.3673 N.ar    1  UNL1       -0.2743
     19 C          16.7904   70.6253   -8.1528 C.ar    1  UNL1        0.3323
     20 C          18.9877   70.6167   -7.1124 C.ar    1  UNL1        0.0869
     21 C          19.6362   70.5693   -8.2779 C.ar    1  UNL1        0.0795
     22 C          18.8620   70.5459   -9.5357 C.ar    1  UNL1        0.2626
     23 H          16.9418   70.5620  -10.1874 H       1  UNL1        0.1734
     24 O          21.1151   72.3786   -0.2902 O.3     1  UNL1       -0.2703
     25 P          21.3785   72.9883    1.1835 P.3     1  UNL1        0.2208
     26 O          20.2256   72.2959    2.0830 O.co2   1  UNL1       -0.4371
     27 O          21.3876   74.4886    1.2361 O.2     1  UNL1       -0.5170
     28 O          22.7503   72.2935    1.6738 O.3     1  UNL1       -0.2858
     29 O          24.4581   73.6525    0.7501 O.3     1  UNL1       -0.3258
     30 O          26.8072   70.9256    2.7740 O.3     1  UNL1       -0.3794
     31 O          26.5594   73.6047    3.7784 O.3     1  UNL1       -0.3794
     32 O          24.4043   70.0403    1.4243 O.3     1  UNL1       -0.3775
     33 C          25.6598   71.7524    2.5615 C.3     1  UNL1        0.1715
     34 C          26.1257   73.2075    2.4806 C.3     1  UNL1        0.1694
     35 C          24.9765   71.3335    1.2612 C.3     1  UNL1        0.1967
     36 C          24.9966   74.1242    1.9907 C.3     1  UNL1        0.1761
     37 C          23.9036   72.3384    0.8377 C.3     1  UNL1        0.2704
     38 H          27.2454   71.1861    3.5984 H       1  UNL1        0.2105
     39 H          27.2721   73.0176    4.0762 H       1  UNL1        0.2105
     40 H          25.0935   69.4133    1.6920 H       1  UNL1        0.2106
     41 O          25.4330   75.8172    0.3621 O.3     1  UNL1       -0.3794
     42 C          25.4823   75.5522    1.7519 C.3     1  UNL1        0.1693
     43 H          25.7390   76.7228    0.1951 H       1  UNL1        0.2105
@<TRIPOS>UNITY_ATOM_ATTR
2 1
charge -1
26 1
charge -1
@<TRIPOS>BOND
     1    25    28    1
     2    25    24    1
     3    25    26    1
     4    25    27    2
     5     1     4    1
     6     1    24    1
     7     1     2    1
     8     1     3    2
     9     6    11    1
    10     6    12    1
    11    29    36    1
    12    29    37    1
    13     7     9    1
    14     7    13    1
    15     8    10    1
    16     8    14    1
    17    28    37    1
    18     4     5    1
    19    30    33    1
    20    30    38    1
    21    31    34    1
    22    31    39    1
    23    32    35    1
    24    32    40    1
    25    41    42    1
    26    41    43    1
    27    15    19    2
    28    16    22    2
    29    17    12    1
    30    17    19   ar
    31    17    20   ar
    32    18    19   ar
    33    18    22   ar
    34    18    23    1
    35     9    10    1
    36     9    11    1
    37    10    12    1
    38    11     5    1
    39    33    34    1
    40    33    35    1
    41    34    36    1
    42    35    37    1
    43    36    42    1
    44    20    21   ar
    45    21    22   ar
@<TRIPOS>MOLECULE
*****
 43 45 0 0 0
SMALL
GASTEIGER

@<TRIPOS>ATOM
      1 P          22.7845   72.7410   -3.8734 P.3     1  UNL1        0.2189
      2 O          22.1938   71.2478   -3.6766 O.co2   1  UNL1       -0.4371
      3 O          24.1635   72.8047   -4.4613 O.2     1  UNL1       -0.5170
      4 O          22.6095   73.4230   -2.4166 O.3     1  UNL1       -0.3112
      5 C          21.6611   74.4651   -2.2674 C.3     1  UNL1        0.1811
      6 O          20.9122   72.7249   -0.7893 O.3     1  UNL1       -0.3308
      7 O          18.8093   74.6594    0.1197 O.3     1  UNL1       -0.3794
      8 O          20.6601   74.8115    2.1168 O.3     1  UNL1       -0.3779
      9 C          20.1613   74.9095   -0.2608 C.3     1  UNL1        0.1713
     10 C          21.1080   74.4470    0.8271 C.3     1  UNL1        0.1895
     11 C          20.5084   73.9669   -1.4064 C.3     1  UNL1        0.1764
     12 C          21.1198   72.9426    0.6158 C.3     1  UNL1        0.2383
     13 H          18.5646   75.2500    0.8499 H       1  UNL1        0.2105
     14 H          20.6707   75.7776    2.2018 H       1  UNL1        0.2106
     15 O          21.5021   70.1755    1.0342 O.2     1  UNL1       -0.2464
     16 O          25.9490   70.7639    2.0927 O.2     1  UNL1       -0.2670
     17 N          22.3673   72.3452    1.0009 N.ar    1  UNL1       -0.2551
     18 N          23.7161   70.4707    1.5608 N.ar    1  UNL1       -0.2743
     19 C          22.4526   70.9456    1.1863 C.ar    1  UNL1        0.3323
     20 C          23.4892   73.1447    1.1905 C.ar    1  UNL1        0.0869
     21 C          24.6865   72.6764    1.5489 C.ar    1  UNL1        0.0795
     22 C          24.8608   71.2253    1.7627 C.ar    1  UNL1        0.2626
     23 H          23.7993   69.4988    1.6959 H       1  UNL1        0.1734
     24 O          21.6428   73.4702   -4.7554 O.3     1  UNL1       -0.2703
     25 P          21.2152   73.2821   -6.3029 P.3     1  UNL1        0.2208
     26 O          22.3834   72.3343   -6.8981 O.co2   1  UNL1       -0.4371
     27 O          21.0227   74.5706   -7.0491 O.2     1  UNL1       -0.5170
     28 O          19.9083   72.3362   -6.2535 O.3     1  UNL1       -0.2858
     29 O          19.3735   70.1060   -5.6561 O.3     1  UNL1       -0.3258
     30 O          17.5529   70.2519   -9.3595 O.3     1  UNL1       -0.3794
     31 O          15.9379   70.2485   -6.9848 O.3     1  UNL1       -0.3794
     32 O          20.0955   71.5729   -8.9474 O.3     1  UNL1       -0.3775
     33 C          17.9880   70.7716   -8.1002 C.3     1  UNL1        0.1715
     34 C          17.3311   69.9497   -6.9895 C.3     1  UNL1        0.1694
     35 C          19.5098   70.6689   -8.0167 C.3     1  UNL1        0.1967
     36 C          17.9509   70.2702   -5.6226 C.3     1  UNL1        0.1761
     37 C          20.0188   70.9591   -6.6036 C.3     1  UNL1        0.2704
     38 H          16.5875   70.3146   -9.4192 H       1  UNL1        0.2105
     39 H          15.5588   70.0422   -7.8536 H       1  UNL1        0.2105
     40 H          19.7656   71.3787   -9.8381 H       1  UNL1        0.2106
     41 O          16.0230   69.2081   -4.6933 O.3     1  UNL1       -0.3794
     42 C          17.4214   69.3503   -4.5247 C.3     1  UNL1        0.1693
     43 H          15.6722   68.6248   -4.0015 H       1  UNL1        0.2105
@<TRIPOS>UNITY_ATOM_ATTR
2 1
charge -1
26 1
charge -1
@<TRIPOS>BOND
     1    25    28    1
     2    25    24    1
     3    25    26    1
     4    25    27    2
     5     1     4    1
     6     1    24    1
     7     1     2    1
     8     1     3    2
     9     6    11    1
    10     6    12    1
    11    29    36    1
    12    29    37    1
    13     7     9    1
    14     7    13    1
    15     8    10    1
    16     8    14    1
    17    28    37    1
    18     4     5    1
    19    30    33    1
    20    30    38    1
    21    31    34    1
    22    31    39    1
    23    32    35    1
    24    32    40    1
    25    41    42    1
    26    41    43    1
    27    15    19    2
    28    16    22    2
    29    17    12    1
    30    17    19   ar
    31    17    20   ar
    32    18    19   ar
    33    18    22   ar
    34    18    23    1
    35     9    10    1
    36     9    11    1
    37    10    12    1
    38    11     5    1
    39    33    34    1
    40    33    35    1
    41    34    36    1
    42    35    37    1
    43    36    42    1
    44    20    21   ar
    45    21    22   ar
@<TRIPOS>MOLECULE
*****
 43 45 0 0 0
SMALL
GASTEIGER

@<TRIPOS>ATOM
      1 P          20.3214   71.2229   -1.4791 P.3     1  UNL1        0.2189
      2 O          20.7708   70.5298   -0.0880 O.co2   1  UNL1       -0.4371
      3 O          19.7811   72.6165   -1.3473 O.2     1  UNL1       -0.5170
      4 O          19.3201   70.1412   -2.1464 O.3     1  UNL1       -0.3112
      5 C          19.0497   70.2362   -3.5341 C.3     1  UNL1        0.1811
      6 O          17.4649   71.2971   -4.9958 O.3     1  UNL1       -0.3308
      7 O          15.3482   69.8347   -3.4559 O.3     1  UNL1       -0.3794
      8 O          15.5946   68.3217   -5.7112 O.3     1  UNL1       -0.3779
      9 C          16.6610   69.4066   -3.8146 C.3     1  UNL1        0.1713
     10 C          16.7186   69.0670   -5.2893 C.3     1  UNL1        0.1895
     11 C          17.5875   70.6131   -3.7296 C.3     1  UNL1        0.1764
     12 C          16.7800   70.4442   -5.9277 C.3     1  UNL1        0.2383
     13 H          14.7385   69.0810   -3.5024 H       1  UNL1        0.2105
     14 H          15.6005   67.4540   -5.2777 H       1  UNL1        0.2106
     15 O          15.5716   70.6815   -8.4696 O.2     1  UNL1       -0.2464
     16 O          19.6345   70.4146  -10.6288 O.2     1  UNL1       -0.2670
     17 N          17.4983   70.4401   -7.1709 N.ar    1  UNL1       -0.2551
     18 N          17.5956   70.5486   -9.5426 N.ar    1  UNL1       -0.2743
     19 C          16.7963   70.5643   -8.3925 C.ar    1  UNL1        0.3323
     20 C          18.8832   70.3144   -7.1707 C.ar    1  UNL1        0.0869
     21 C          19.6307   70.2999   -8.2762 C.ar    1  UNL1        0.0795
     22 C          18.9750   70.4246   -9.5940 C.ar    1  UNL1        0.2626
     23 H          17.1283   70.6333  -10.4053 H       1  UNL1        0.1734
     24 O          21.6497   71.1000   -2.3921 O.3     1  UNL1       -0.2703
     25 P          23.1800   71.5337   -2.1037 P.3     1  UNL1        0.2208
     26 O          23.1399   73.1457   -2.2352 O.co2   1  UNL1       -0.4371
     27 O          24.1873   70.8646   -2.9935 O.2     1  UNL1       -0.5170
     28 O          23.3924   71.2584   -0.5276 O.3     1  UNL1       -0.2858
     29 O          23.1919   73.3966    0.4745 O.3     1  UNL1       -0.3258
     30 O          23.7940   71.1292    3.8726 O.3     1  UNL1       -0.3794
     31 O          21.1883   72.2092    3.3319 O.3     1  UNL1       -0.3794
     32 O          25.2408   70.5042    1.4446 O.3     1  UNL1       -0.3775
     33 C          23.3018   71.4003    2.5575 C.3     1  UNL1        0.1715
     34 C          22.3656   72.6079    2.6352 C.3     1  UNL1        0.1694
     35 C          24.4823   71.6939    1.6335 C.3     1  UNL1        0.1967
     36 C          22.0089   73.1234    1.2345 C.3     1  UNL1        0.1761
     37 C          24.0196   72.2475    0.2845 C.3     1  UNL1        0.2704
     38 H          23.0494   70.9415    4.4642 H       1  UNL1        0.2105
     39 H          21.4275   71.8853    4.2146 H       1  UNL1        0.2105
     40 H          25.5281   70.1639    2.3057 H       1  UNL1        0.2106
     41 O          19.8275   74.0984    1.2332 O.3     1  UNL1       -0.3794
     42 C          21.2049   74.4206    1.2901 C.3     1  UNL1        0.1693
     43 H          19.3035   74.9144    1.2680 H       1  UNL1        0.2105
@<TRIPOS>UNITY_ATOM_ATTR
2 1
charge -1
26 1
charge -1
@<TRIPOS>BOND
     1    25    28    1
     2    25    24    1
     3    25    26    1
     4    25    27    2
     5     1     4    1
     6     1    24    1
     7     1     2    1
     8     1     3    2
     9     6    11    1
    10     6    12    1
    11    29    36    1
    12    29    37    1
    13     7     9    1
    14     7    13    1
    15     8    10    1
    16     8    14    1
    17    28    37    1
    18     4     5    1
    19    30    33    1
    20    30    38    1
    21    31    34    1
    22    31    39    1
    23    32    35    1
    24    32    40    1
    25    41    42    1
    26    41    43    1
    27    15    19    2
    28    16    22    2
    29    17    12    1
    30    17    19   ar
    31    17    20   ar
    32    18    19   ar
    33    18    22   ar
    34    18    23    1
    35     9    10    1
    36     9    11    1
    37    10    12    1
    38    11     5    1
    39    33    34    1
    40    33    35    1
    41    34    36    1
    42    35    37    1
    43    36    42    1
    44    20    21   ar
    45    21    22   ar
@<TRIPOS>MOLECULE
*****
 43 45 0 0 0
SMALL
GASTEIGER

@<TRIPOS>ATOM
      1 P          20.1401   72.7606   -1.6739 P.3     1  UNL1        0.2189
      2 O          18.9111   73.7237   -1.2505 O.co2   1  UNL1       -0.4371
      3 O          21.1743   73.4015   -2.5519 O.2     1  UNL1       -0.5170
      4 O          19.4139   71.4502   -2.2850 O.3     1  UNL1       -0.3112
      5 C          19.1293   71.4204   -3.6728 C.3     1  UNL1        0.1811
      6 O          17.3660   71.8802   -5.2391 O.3     1  UNL1       -0.3308
      7 O          15.5597   70.4088   -3.3516 O.3     1  UNL1       -0.3794
      8 O          16.0492   68.5445   -5.2807 O.3     1  UNL1       -0.3779
      9 C          16.9241   70.1515   -3.6796 C.3     1  UNL1        0.1713
     10 C          17.0265   69.5414   -5.0620 C.3     1  UNL1        0.1895
     11 C          17.6215   71.4925   -3.8713 C.3     1  UNL1        0.1764
     12 C          16.8348   70.7542   -5.9566 C.3     1  UNL1        0.2383
     13 H          15.0937   69.5670   -3.2240 H       1  UNL1        0.2105
     14 H          16.2141   67.7944   -4.6884 H       1  UNL1        0.2106
     15 O          15.5771   70.7231   -8.4855 O.2     1  UNL1       -0.2464
     16 O          19.6010   70.2635  -10.6849 O.2     1  UNL1       -0.2670
     17 N          17.5297   70.6280   -7.2067 N.ar    1  UNL1       -0.2551
     18 N          17.5817   70.4944   -9.5786 N.ar    1  UNL1       -0.2743
     19 C          16.8040   70.6223   -8.4207 C.ar    1  UNL1        0.3323
     20 C          18.9154   70.5119   -7.2206 C.ar    1  UNL1        0.0869
     21 C          19.6422   70.3894   -8.3333 C.ar    1  UNL1        0.0795
     22 C          18.9609   70.3747   -9.6439 C.ar    1  UNL1        0.2626
     23 H          17.0976   70.4876  -10.4361 H       1  UNL1        0.1734
     24 O          20.6979   72.2361   -0.2502 O.3     1  UNL1       -0.2703
     25 P          21.9720   71.3107    0.1150 P.3     1  UNL1        0.2208
     26 O          22.4409   70.7401   -1.3245 O.co2   1  UNL1       -0.4371
     27 O          21.6888   70.2502    1.1392 O.2     1  UNL1       -0.5170
     28 O          23.1282   72.3552    0.5358 O.3     1  UNL1       -0.2858
     29 O          22.3960   73.5846    2.4249 O.3     1  UNL1       -0.3258
     30 O          25.9411   75.5670    1.6813 O.3     1  UNL1       -0.3794
     31 O          25.7424   73.8208    3.9528 O.3     1  UNL1       -0.3794
     32 O          24.2943   74.6762   -0.5264 O.3     1  UNL1       -0.3775
     33 C          25.0690   74.4351    1.7414 C.3     1  UNL1        0.1715
     34 C          24.6180   74.2536    3.1920 C.3     1  UNL1        0.1694
     35 C          23.8672   74.6821    0.8315 C.3     1  UNL1        0.1967
     36 C          23.4782   73.2311    3.2940 C.3     1  UNL1        0.1761
     37 C          22.7713   73.6368    1.0471 C.3     1  UNL1        0.2704
     38 H          26.7066   75.4164    2.2565 H       1  UNL1        0.2105
     39 H          26.4550   74.4750    3.8795 H       1  UNL1        0.2105
     40 H          24.9877   75.3424   -0.6500 H       1  UNL1        0.2106
     41 O          21.5172   72.8959    4.6172 O.3     1  UNL1       -0.3794
     42 C          22.9069   73.1506    4.7079 C.3     1  UNL1        0.1693
     43 H          21.1401   72.8418    5.5098 H       1  UNL1        0.2105
@<TRIPOS>UNITY_ATOM_ATTR
2 1
charge -1
26 1
charge -1
@<TRIPOS>BOND
     1    25    28    1
     2    25    24    1
     3    25    26    1
     4    25    27    2
     5     1     4    1
     6     1    24    1
     7     1     2    1
     8     1     3    2
     9     6    11    1
    10     6    12    1
    11    29    36    1
    12    29    37    1
    13     7     9    1
    14     7    13    1
    15     8    10    1
    16     8    14    1
    17    28    37    1
    18     4     5    1
    19    30    33    1
    20    30    38    1
    21    31    34    1
    22    31    39    1
    23    32    35    1
    24    32    40    1
    25    41    42    1
    26    41    43    1
    27    15    19    2
    28    16    22    2
    29    17    12    1
    30    17    19   ar
    31    17    20   ar
    32    18    19   ar
    33    18    22   ar
    34    18    23    1
    35     9    10    1
    36     9    11    1
    37    10    12    1
    38    11     5    1
    39    33    34    1
    40    33    35    1
    41    34    36    1
    42    35    37    1
    43    36    42    1
    44    20    21   ar
    45    21    22   ar
@<TRIPOS>MOLECULE
*****
 43 45 0 0 0
SMALL
GASTEIGER

@<TRIPOS>ATOM
      1 P          21.3214   72.0826   -2.0704 P.3     1  UNL1        0.2189
      2 O          20.2856   73.3000   -1.8208 O.co2   1  UNL1       -0.4371
      3 O          22.3345   72.3238   -3.1507 O.2     1  UNL1       -0.5170
      4 O          20.3642   70.7950   -2.2796 O.3     1  UNL1       -0.3112
      5 C          19.8016   70.5718   -3.5608 C.3     1  UNL1        0.1811
      6 O          18.0518   71.6609   -4.7961 O.3     1  UNL1       -0.3308
      7 O          16.1434   70.3236   -2.9092 O.3     1  UNL1       -0.3794
      8 O          15.9863   68.7479   -5.1293 O.3     1  UNL1       -0.3779
      9 C          17.3693   69.8338   -3.4501 C.3     1  UNL1        0.1713
     10 C          17.1882   69.4566   -4.9057 C.3     1  UNL1        0.1895
     11 C          18.3416   71.0031   -3.5432 C.3     1  UNL1        0.1764
     12 C          17.2017   70.8145   -5.5870 C.3     1  UNL1        0.2383
     13 H          15.5066   69.5945   -2.8399 H       1  UNL1        0.2105
     14 H          16.0267   67.8915   -4.6759 H       1  UNL1        0.2106
     15 O          15.6273   70.3753   -7.8906 O.2     1  UNL1       -0.2464
     16 O          19.3008   70.5894  -10.6656 O.2     1  UNL1       -0.2670
     17 N          17.7206   70.7511   -6.9242 N.ar    1  UNL1       -0.2551
     18 N          17.4577   70.4825   -9.2705 N.ar    1  UNL1       -0.2743
     19 C          16.8449   70.5251   -8.0116 C.ar    1  UNL1        0.3323
     20 C          19.0838   70.9126   -7.1469 C.ar    1  UNL1        0.0869
     21 C          19.6525   70.8679   -8.3534 C.ar    1  UNL1        0.0795
     22 C          18.8079   70.6359   -9.5428 C.ar    1  UNL1        0.2626
     23 H          16.8673   70.3258  -10.0430 H       1  UNL1        0.1734
     24 O          21.9499   71.8333   -0.6022 O.3     1  UNL1       -0.2703
     25 P          23.0996   72.6287    0.2094 P.3     1  UNL1        0.2208
     26 O          23.5126   73.8201   -0.8043 O.co2   1  UNL1       -0.4371
     27 O          24.2467   71.7680    0.6536 O.2     1  UNL1       -0.5170
     28 O          22.3146   73.3687    1.4099 O.3     1  UNL1       -0.2858
     29 O          21.8298   72.4851    3.5548 O.3     1  UNL1       -0.3258
     30 O          18.5364   74.9321    3.0895 O.3     1  UNL1       -0.3794
     31 O          20.6084   75.6785    4.9328 O.3     1  UNL1       -0.3794
     32 O          19.5717   73.4580    0.8235 O.3     1  UNL1       -0.3775
     33 C          19.9069   74.5504    2.9438 C.3     1  UNL1        0.1715
     34 C          20.5101   74.3864    4.3403 C.3     1  UNL1        0.1694
     35 C          19.9793   73.2358    2.1692 C.3     1  UNL1        0.1967
     36 C          21.8924   73.7233    4.2723 C.3     1  UNL1        0.1761
     37 C          21.3861   72.6359    2.2049 C.3     1  UNL1        0.2704
     38 H          18.4834   75.7664    3.5801 H       1  UNL1        0.2105
     39 H          19.7289   76.0865    4.9693 H       1  UNL1        0.2105
     40 H          18.6797   73.8376    0.8145 H       1  UNL1        0.2106
     41 O          22.5796   72.0027    5.7811 O.3     1  UNL1       -0.3794
     42 C          22.4438   73.4068    5.6608 C.3     1  UNL1        0.1693
     43 H          22.9299   71.7865    6.6599 H       1  UNL1        0.2105
@<TRIPOS>UNITY_ATOM_ATTR
2 1
charge -1
26 1
charge -1
@<TRIPOS>BOND
     1    25    28    1
     2    25    24    1
     3    25    26    1
     4    25    27    2
     5     1     4    1
     6     1    24    1
     7     1     2    1
     8     1     3    2
     9     6    11    1
    10     6    12    1
    11    29    36    1
    12    29    37    1
    13     7     9    1
    14     7    13    1
    15     8    10    1
    16     8    14    1
    17    28    37    1
    18     4     5    1
    19    30    33    1
    20    30    38    1
    21    31    34    1
    22    31    39    1
    23    32    35    1
    24    32    40    1
    25    41    42    1
    26    41    43    1
    27    15    19    2
    28    16    22    2
    29    17    12    1
    30    17    19   ar
    31    17    20   ar
    32    18    19   ar
    33    18    22   ar
    34    18    23    1
    35     9    10    1
    36     9    11    1
    37    10    12    1
    38    11     5    1
    39    33    34    1
    40    33    35    1
    41    34    36    1
    42    35    37    1
    43    36    42    1
    44    20    21   ar
    45    21    22   ar
@<TRIPOS>MOLECULE
*****
 43 45 0 0 0
SMALL
GASTEIGER

@<TRIPOS>ATOM
      1 P          21.6539   71.2592    0.0822 P.3     1  UNL1        0.2189
      2 O          20.2629   72.0047   -0.2737 O.co2   1  UNL1       -0.4371
      3 O          21.5118   70.0086    0.8990 O.2     1  UNL1       -0.5170
      4 O          22.5636   72.4262    0.7368 O.3     1  UNL1       -0.3112
      5 C          23.1452   72.1971    2.0084 C.3     1  UNL1        0.1811
      6 O          22.6740   72.2517    4.3640 O.3     1  UNL1       -0.3308
      7 O          19.8983   73.0891    3.5992 O.3     1  UNL1       -0.3794
      8 O          21.0520   75.4503    4.3275 O.3     1  UNL1       -0.3779
      9 C          21.1426   73.4240    2.9869 C.3     1  UNL1        0.1713
     10 C          21.8940   74.4268    3.8374 C.3     1  UNL1        0.1895
     11 C          22.0475   72.2006    3.0635 C.3     1  UNL1        0.1764
     12 C          22.4503   73.5472    4.9441 C.3     1  UNL1        0.2383
     13 H          19.3034   73.8551    3.5620 H       1  UNL1        0.2105
     14 H          20.7236   75.9820    3.5858 H       1  UNL1        0.2106
     15 O          22.9892   73.9190    7.6917 O.2     1  UNL1       -0.2464
     16 O          27.2466   75.4623    6.8354 O.2     1  UNL1       -0.2670
     17 N          23.6915   74.0444    5.4673 N.ar    1  UNL1       -0.2551
     18 N          25.1087   74.6870    7.2631 N.ar    1  UNL1       -0.2743
     19 C          23.8596   74.1949    6.8636 C.ar    1  UNL1        0.3323
     20 C          24.7258   74.3767    4.5992 C.ar    1  UNL1        0.0869
     21 C          25.9105   74.8460    4.9962 C.ar    1  UNL1        0.0795
     22 C          26.1678   75.0327    6.4388 C.ar    1  UNL1        0.2626
     23 H          25.2485   74.8004    8.2313 H       1  UNL1        0.1734
     24 O          22.3314   71.0415   -1.3692 O.3     1  UNL1       -0.2703
     25 P          22.8559   72.1064   -2.4664 P.3     1  UNL1        0.2208
     26 O          24.0347   71.3028   -3.2295 O.co2   1  UNL1       -0.4371
     27 O          23.2791   73.4263   -1.8896 O.2     1  UNL1       -0.5170
     28 O          21.6612   72.2011   -3.5474 O.3     1  UNL1       -0.2858
     29 O          20.4547   70.7063   -4.9355 O.3     1  UNL1       -0.3258
     30 O          21.3611   73.6119   -7.7259 O.3     1  UNL1       -0.3794
     31 O          18.6667   73.3613   -6.7638 O.3     1  UNL1       -0.3794
     32 O          23.3100   72.8855   -5.7126 O.3     1  UNL1       -0.3775
     33 C          21.0218   73.1104   -6.4302 C.3     1  UNL1        0.1715
     34 C          19.6787   72.3850   -6.5333 C.3     1  UNL1        0.1694
     35 C          22.1161   72.1521   -5.9637 C.3     1  UNL1        0.1967
     36 C          19.3766   71.5941   -5.2533 C.3     1  UNL1        0.1761
     37 C          21.6948   71.3801   -4.7120 C.3     1  UNL1        0.2704
     38 H          20.6705   74.2215   -8.0277 H       1  UNL1        0.2105
     39 H          18.8697   73.8539   -7.5746 H       1  UNL1        0.2105
     40 H          23.5664   73.3694   -6.5126 H       1  UNL1        0.2106
     41 O          17.8919   70.4962   -6.7696 O.3     1  UNL1       -0.3794
     42 C          18.1200   70.7378   -5.3934 C.3     1  UNL1        0.1693
     43 H          17.0953   69.9519   -6.8740 H       1  UNL1        0.2105
@<TRIPOS>UNITY_ATOM_ATTR
2 1
charge -1
26 1
charge -1
@<TRIPOS>BOND
     1    25    28    1
     2    25    24    1
     3    25    26    1
     4    25    27    2
     5     1     4    1
     6     1    24    1
     7     1     2    1
     8     1     3    2
     9     6    11    1
    10     6    12    1
    11    29    36    1
    12    29    37    1
    13     7     9    1
    14     7    13    1
    15     8    10    1
    16     8    14    1
    17    28    37    1
    18     4     5    1
    19    30    33    1
    20    30    38    1
    21    31    34    1
    22    31    39    1
    23    32    35    1
    24    32    40    1
    25    41    42    1
    26    41    43    1
    27    15    19    2
    28    16    22    2
    29    17    12    1
    30    17    19   ar
    31    17    20   ar
    32    18    19   ar
    33    18    22   ar
    34    18    23    1
    35     9    10    1
    36     9    11    1
    37    10    12    1
    38    11     5    1
    39    33    34    1
    40    33    35    1
    41    34    36    1
    42    35    37    1
    43    36    42    1
    44    20    21   ar
    45    21    22   ar
@<TRIPOS>MOLECULE
*****
 43 45 0 0 0
SMALL
GASTEIGER

@<TRIPOS>ATOM
      1 P          21.8406   72.4190   -5.6488 P.3     1  UNL1        0.2189
      2 O          21.1296   73.8067   -5.2172 O.co2   1  UNL1       -0.4371
      3 O          23.0614   72.5727   -6.5074 O.2     1  UNL1       -0.5170
      4 O          20.6364   71.5484   -6.2890 O.3     1  UNL1       -0.3112
      5 C          20.1216   71.9326   -7.5520 C.3     1  UNL1        0.1811
      6 O          18.8718   69.9189   -7.1557 O.3     1  UNL1       -0.3308
      7 O          18.1154   70.0404  -10.0546 O.3     1  UNL1       -0.3794
      8 O          15.8903   71.0185   -8.8182 O.3     1  UNL1       -0.3779
      9 C          18.3005   71.1067   -9.1251 C.3     1  UNL1        0.1713
     10 C          17.1326   71.1746   -8.1633 C.3     1  UNL1        0.1895
     11 C          19.4518   70.7293   -8.2013 C.3     1  UNL1        0.1764
     12 C          17.4403   70.0300   -7.2128 C.3     1  UNL1        0.2383
     13 H          17.3852   70.2587  -10.6556 H       1  UNL1        0.2105
     14 H          15.7404   71.7712   -9.4112 H       1  UNL1        0.2106
     15 O          16.3187   68.0403   -5.5511 O.2     1  UNL1       -0.2464
     16 O          15.5438   71.0561   -2.1532 O.2     1  UNL1       -0.2670
     17 N          16.9379   70.2674   -5.8889 N.ar    1  UNL1       -0.2551
     18 N          15.9340   69.5435   -3.8605 N.ar    1  UNL1       -0.2743
     19 C          16.3937   69.1994   -5.1381 C.ar    1  UNL1        0.3323
     20 C          16.9879   71.5475   -5.3479 C.ar    1  UNL1        0.0869
     21 C          16.5441   71.8593   -4.1285 C.ar    1  UNL1        0.0795
     22 C          15.9607   70.8011   -3.2788 C.ar    1  UNL1        0.2626
     23 H          15.5504   68.8157   -3.3193 H       1  UNL1        0.1734
     24 O          22.1030   71.6887   -4.2308 O.3     1  UNL1       -0.2703
     25 P          23.2823   71.8777   -3.1416 P.3     1  UNL1        0.2208
     26 O          23.9500   73.2909   -3.5592 O.co2   1  UNL1       -0.4371
     27 O          24.2493   70.7311   -3.0764 O.2     1  UNL1       -0.5170
     28 O          22.5133   72.1838   -1.7559 O.3     1  UNL1       -0.2858
     29 O          22.2875   74.0267   -0.2831 O.3     1  UNL1       -0.3258
     30 O          23.1074   71.0702    2.4804 O.3     1  UNL1       -0.3794
     31 O          20.4477   72.1371    2.2924 O.3     1  UNL1       -0.3794
     32 O          24.4680   71.0758   -0.0746 O.3     1  UNL1       -0.3775
     33 C          22.5508   71.6139    1.2805 C.3     1  UNL1        0.1715
     34 C          21.5806   72.7323    1.6658 C.3     1  UNL1        0.1694
     35 C          23.6805   72.1588    0.4085 C.3     1  UNL1        0.1967
     36 C          21.1476   73.5389    0.4341 C.3     1  UNL1        0.1761
     37 C          23.1428   72.9862   -0.7604 C.3     1  UNL1        0.2704
     38 H          22.3954   70.7220    3.0384 H       1  UNL1        0.2105
     39 H          20.7349   71.6304    3.0682 H       1  UNL1        0.2105
     40 H          24.8027   70.5600    0.6749 H       1  UNL1        0.2106
     41 O          18.9670   74.3339    1.0014 O.3     1  UNL1       -0.3794
     42 C          20.3056   74.7550    0.8138 C.3     1  UNL1        0.1693
     43 H          18.4195   75.0975    1.2438 H       1  UNL1        0.2105
@<TRIPOS>UNITY_ATOM_ATTR
2 1
charge -1
26 1
charge -1
@<TRIPOS>BOND
     1    25    28    1
     2    25    24    1
     3    25    26    1
     4    25    27    2
     5     1     4    1
     6     1    24    1
     7     1     2    1
     8     1     3    2
     9     6    11    1
    10     6    12    1
    11    29    36    1
    12    29    37    1
    13     7     9    1
    14     7    13    1
    15     8    10    1
    16     8    14    1
    17    28    37    1
    18     4     5    1
    19    30    33    1
    20    30    38    1
    21    31    34    1
    22    31    39    1
    23    32    35    1
    24    32    40    1
    25    41    42    1
    26    41    43    1
    27    15    19    2
    28    16    22    2
    29    17    12    1
    30    17    19   ar
    31    17    20   ar
    32    18    19   ar
    33    18    22   ar
    34    18    23    1
    35     9    10    1
    36     9    11    1
    37    10    12    1
    38    11     5    1
    39    33    34    1
    40    33    35    1
    41    34    36    1
    42    35    37    1
    43    36    42    1
    44    20    21   ar
    45    21    22   ar
@<TRIPOS>MOLECULE
*****
 43 45 0 0 0
SMALL
GASTEIGER

@<TRIPOS>ATOM
      1 P          21.8168   72.7384   -5.6777 P.3     1  UNL1        0.2189
      2 O          21.2899   74.2450   -5.9423 O.co2   1  UNL1       -0.4371
      3 O          23.1297   72.4037   -6.3224 O.2     1  UNL1       -0.5170
      4 O          20.5651   71.8079   -6.1083 O.3     1  UNL1       -0.3112
      5 C          19.9213   72.0698   -7.3432 C.3     1  UNL1        0.1811
      6 O          18.7252   70.0616   -6.7863 O.3     1  UNL1       -0.3308
      7 O          18.1503   69.8139   -9.7187 O.3     1  UNL1       -0.3794
      8 O          15.8161   70.8280   -8.7390 O.3     1  UNL1       -0.3779
      9 C          18.2360   70.9875   -8.9121 C.3     1  UNL1        0.1713
     10 C          17.0077   71.1138   -8.0353 C.3     1  UNL1        0.1895
     11 C          19.3397   70.7710   -7.8843 C.3     1  UNL1        0.1764
     12 C          17.2970   70.1014   -6.9401 C.3     1  UNL1        0.2383
     13 H          17.4522   69.9287  -10.3831 H       1  UNL1        0.2105
     14 H          15.6762   71.4998   -9.4244 H       1  UNL1        0.2106
     15 O          16.5875   68.2649   -4.9148 O.2     1  UNL1       -0.2464
     16 O          15.0230   71.6185   -2.1676 O.2     1  UNL1       -0.2670
     17 N          16.7029   70.4672   -5.6852 N.ar    1  UNL1       -0.2551
     18 N          15.8092   69.9362   -3.5485 N.ar    1  UNL1       -0.2743
     19 C          16.3839   69.4676   -4.7368 C.ar    1  UNL1        0.3323
     20 C          16.4429   71.8043   -5.4053 C.ar    1  UNL1        0.0869
     21 C          15.8932   72.2346   -4.2678 C.ar    1  UNL1        0.0795
     22 C          15.5300   71.2544   -3.2241 C.ar    1  UNL1        0.2626
     23 H          15.5783   69.2578   -2.8731 H       1  UNL1        0.1734
     24 O          21.8122   72.6298   -4.0649 O.3     1  UNL1       -0.2703
     25 P          22.3192   71.4536   -3.0787 P.3     1  UNL1        0.2208
     26 O          23.9204   71.4402   -3.3097 O.co2   1  UNL1       -0.4371
     27 O          21.6497   70.1291   -3.3055 O.2     1  UNL1       -0.5170
     28 O          22.1267   72.0547   -1.5932 O.3     1  UNL1       -0.2858
     29 O          23.9701   72.4440   -0.1556 O.3     1  UNL1       -0.3258
     30 O          20.9935   72.0522    2.6795 O.3     1  UNL1       -0.3794
     31 O          22.1075   74.6442    2.1420 O.3     1  UNL1       -0.3794
     32 O          20.9809   70.3620    0.3295 O.3     1  UNL1       -0.3775
     33 C          21.5496   72.4338    1.4183 C.3     1  UNL1        0.1715
     34 C          22.6841   73.4276    1.6754 C.3     1  UNL1        0.1694
     35 C          22.0765   71.1884    0.7078 C.3     1  UNL1        0.1967
     36 C          23.5008   73.6779    0.4005 C.3     1  UNL1        0.1761
     37 C          22.9158   71.5505   -0.5188 C.3     1  UNL1        0.2704
     38 H          20.6567   72.8384    3.1356 H       1  UNL1        0.2105
     39 H          21.5941   74.4722    2.9471 H       1  UNL1        0.2105
     40 H          20.4576   70.1395    1.1147 H       1  UNL1        0.2106
     41 O          25.1388   74.3381    2.0098 O.3     1  UNL1       -0.3794
     42 C          24.7307   74.5422    0.6696 C.3     1  UNL1        0.1693
     43 H          25.9210   74.8817    2.1953 H       1  UNL1        0.2105
@<TRIPOS>UNITY_ATOM_ATTR
2 1
charge -1
26 1
charge -1
@<TRIPOS>BOND
     1    25    28    1
     2    25    24    1
     3    25    26    1
     4    25    27    2
     5     1     4    1
     6     1    24    1
     7     1     2    1
     8     1     3    2
     9     6    11    1
    10     6    12    1
    11    29    36    1
    12    29    37    1
    13     7     9    1
    14     7    13    1
    15     8    10    1
    16     8    14    1
    17    28    37    1
    18     4     5    1
    19    30    33    1
    20    30    38    1
    21    31    34    1
    22    31    39    1
    23    32    35    1
    24    32    40    1
    25    41    42    1
    26    41    43    1
    27    15    19    2
    28    16    22    2
    29    17    12    1
    30    17    19   ar
    31    17    20   ar
    32    18    19   ar
    33    18    22   ar
    34    18    23    1
    35     9    10    1
    36     9    11    1
    37    10    12    1
    38    11     5    1
    39    33    34    1
    40    33    35    1
    41    34    36    1
    42    35    37    1
    43    36    42    1
    44    20    21   ar
    45    21    22   ar
@<TRIPOS>MOLECULE
*****
 43 45 0 0 0
SMALL
GASTEIGER

@<TRIPOS>ATOM
      1 P          23.4935   72.4318   -3.4910 P.3     1  UNL1        0.2189
      2 O          24.0854   70.9376   -3.3060 O.co2   1  UNL1       -0.4371
      3 O          24.5032   73.4692   -3.8858 O.2     1  UNL1       -0.5170
      4 O          22.7039   72.7109   -2.1066 O.3     1  UNL1       -0.3112
      5 C          23.4436   72.7290   -0.8981 C.3     1  UNL1        0.1811
      6 O          24.4445   71.0603    0.5116 O.3     1  UNL1       -0.3308
      7 O          21.6465   70.2104    1.1744 O.3     1  UNL1       -0.3794
      8 O          22.3493   71.6926    3.3529 O.3     1  UNL1       -0.3779
      9 C          22.1588   71.5202    0.9352 C.3     1  UNL1        0.1713
     10 C          22.9747   71.9904    2.1213 C.3     1  UNL1        0.1895
     11 C          23.2156   71.4184   -0.1576 C.3     1  UNL1        0.1764
     12 C          24.2770   71.2321    1.9284 C.3     1  UNL1        0.2383
     13 H          20.9694   70.2500    1.8686 H       1  UNL1        0.2105
     14 H          21.5257   72.1992    3.4284 H       1  UNL1        0.2106
     15 O          24.2477   73.9635    2.6472 O.2     1  UNL1       -0.2464
     16 O          28.6785   73.8667    3.9120 O.2     1  UNL1       -0.2670
     17 N          25.4087   71.9462    2.4486 N.ar    1  UNL1       -0.2551
     18 N          26.4539   73.9130    3.2766 N.ar    1  UNL1       -0.2743
     19 C          25.2889   73.3165    2.7775 C.ar    1  UNL1        0.3323
     20 C          26.6205   71.2880    2.6281 C.ar    1  UNL1        0.0869
     21 C          27.7225   71.8715    3.1039 C.ar    1  UNL1        0.0795
     22 C          27.6822   73.3015    3.4719 C.ar    1  UNL1        0.2626
     23 H          26.3943   74.8673    3.5122 H       1  UNL1        0.1734
     24 O          22.2959   72.2192   -4.5557 O.3     1  UNL1       -0.2703
     25 P          21.7661   73.1593   -5.7592 P.3     1  UNL1        0.2208
     26 O          22.8447   72.8980   -6.9365 O.co2   1  UNL1       -0.4371
     27 O          21.5970   74.6029   -5.3836 O.2     1  UNL1       -0.5170
     28 O          20.4167   72.4400   -6.2757 O.3     1  UNL1       -0.2858
     29 O          19.5604   70.2546   -5.9484 O.3     1  UNL1       -0.3258
     30 O          18.5151   70.7867   -9.9076 O.3     1  UNL1       -0.3794
     31 O          16.4781   70.8402   -7.8837 O.3     1  UNL1       -0.3794
     32 O          21.0466   71.7983   -8.9340 O.3     1  UNL1       -0.3775
     33 C          18.7467   71.1911   -8.5554 C.3     1  UNL1        0.1715
     34 C          17.8097   70.3910   -7.6484 C.3     1  UNL1        0.1694
     35 C          20.2060   70.9180   -8.1958 C.3     1  UNL1        0.1967
     36 C          18.1814   70.5719   -6.1705 C.3     1  UNL1        0.1761
     37 C          20.4575   71.0786   -6.6954 C.3     1  UNL1        0.2704
     38 H          17.5904   70.9579  -10.1424 H       1  UNL1        0.2105
     39 H          16.2561   70.7209   -8.8206 H       1  UNL1        0.2105
     40 H          20.8780   71.6868   -9.8822 H       1  UNL1        0.2106
     41 O          16.0382   69.5994   -5.7581 O.3     1  UNL1       -0.3794
     42 C          17.3617   69.6612   -5.2590 C.3     1  UNL1        0.1693
     43 H          15.5050   69.0229   -5.1880 H       1  UNL1        0.2105
@<TRIPOS>UNITY_ATOM_ATTR
2 1
charge -1
26 1
charge -1
@<TRIPOS>BOND
     1    25    28    1
     2    25    24    1
     3    25    26    1
     4    25    27    2
     5     1     4    1
     6     1    24    1
     7     1     2    1
     8     1     3    2
     9     6    11    1
    10     6    12    1
    11    29    36    1
    12    29    37    1
    13     7     9    1
    14     7    13    1
    15     8    10    1
    16     8    14    1
    17    28    37    1
    18     4     5    1
    19    30    33    1
    20    30    38    1
    21    31    34    1
    22    31    39    1
    23    32    35    1
    24    32    40    1
    25    41    42    1
    26    41    43    1
    27    15    19    2
    28    16    22    2
    29    17    12    1
    30    17    19   ar
    31    17    20   ar
    32    18    19   ar
    33    18    22   ar
    34    18    23    1
    35     9    10    1
    36     9    11    1
    37    10    12    1
    38    11     5    1
    39    33    34    1
    40    33    35    1
    41    34    36    1
    42    35    37    1
    43    36    42    1
    44    20    21   ar
    45    21    22   ar
@<TRIPOS>MOLECULE
*****
 43 45 0 0 0
SMALL
GASTEIGER

@<TRIPOS>ATOM
      1 P          19.9955   72.8369   -3.2375 P.3     1  UNL1        0.2189
      2 O          19.1215   74.1673   -3.5269 O.co2   1  UNL1       -0.4371
      3 O          19.2051   71.5638   -3.1604 O.2     1  UNL1       -0.5170
      4 O          20.8510   73.2139   -1.9169 O.3     1  UNL1       -0.3112
      5 C          20.4452   74.3302   -1.1443 C.3     1  UNL1        0.1811
      6 O          20.2644   72.6087    0.5224 O.3     1  UNL1       -0.3308
      7 O          18.5734   74.5431    2.0681 O.3     1  UNL1       -0.3794
      8 O          20.9912   74.7397    3.3141 O.3     1  UNL1       -0.3779
      9 C          19.7123   74.7964    1.2471 C.3     1  UNL1        0.1713
     10 C          20.9779   74.3577    1.9537 C.3     1  UNL1        0.1895
     11 C          19.6602   73.8380    0.0638 C.3     1  UNL1        0.1764
     12 C          20.9350   72.8502    1.7701 C.3     1  UNL1        0.2383
     13 H          18.5847   75.1437    2.8305 H       1  UNL1        0.2105
     14 H          21.0187   75.7071    3.3782 H       1  UNL1        0.2106
     15 O          21.4541   70.1450    1.1455 O.2     1  UNL1       -0.2464
     16 O          26.0046   70.7250    1.5910 O.2     1  UNL1       -0.2670
     17 N          22.2460   72.2675    1.7153 N.ar    1  UNL1       -0.2551
     18 N          23.7195   70.4360    1.3676 N.ar    1  UNL1       -0.2743
     19 C          22.3977   70.8988    1.3929 C.ar    1  UNL1        0.3323
     20 C          23.3642   73.0511    1.9793 C.ar    1  UNL1        0.0869
     21 C          24.6179   72.5943    1.9523 C.ar    1  UNL1        0.0795
     22 C          24.8635   71.1752    1.6238 C.ar    1  UNL1        0.2626
     23 H          23.8495   69.4854    1.1457 H       1  UNL1        0.1734
     24 O          21.1062   72.8692   -4.4115 O.3     1  UNL1       -0.2703
     25 P          20.9829   73.2419   -5.9795 P.3     1  UNL1        0.2208
     26 O          22.2687   72.5122   -6.6366 O.co2   1  UNL1       -0.4371
     27 O          20.8978   74.7149   -6.2571 O.2     1  UNL1       -0.5170
     28 O          19.7175   72.3883   -6.5040 O.3     1  UNL1       -0.2858
     29 O          19.0837   70.1519   -6.0419 O.3     1  UNL1       -0.3258
     30 O          17.9342   70.3584  -10.0026 O.3     1  UNL1       -0.3794
     31 O          15.9313   70.3274   -7.9446 O.3     1  UNL1       -0.3794
     32 O          20.3685   71.6631   -9.1356 O.3     1  UNL1       -0.3775
     33 C          18.1447   70.8582   -8.6792 C.3     1  UNL1        0.1715
     34 C          17.3037   70.0231   -7.7117 C.3     1  UNL1        0.1694
     35 C          19.6288   70.7482   -8.3343 C.3     1  UNL1        0.1967
     36 C          17.6772   70.3214   -6.2535 C.3     1  UNL1        0.1761
     37 C          19.8851   71.0159   -6.8501 C.3     1  UNL1        0.2704
     38 H          16.9939   70.4259  -10.2280 H       1  UNL1        0.2105
     39 H          15.7085   70.1351   -8.8690 H       1  UNL1        0.2105
     40 H          20.1980   71.4830  -10.0728 H       1  UNL1        0.2106
     41 O          15.8587   70.0773   -4.7230 O.3     1  UNL1       -0.3794
     42 C          16.9637   69.3879   -5.2779 C.3     1  UNL1        0.1693
     43 H          15.3948   69.4953   -4.1003 H       1  UNL1        0.2105
@<TRIPOS>UNITY_ATOM_ATTR
2 1
charge -1
26 1
charge -1
@<TRIPOS>BOND
     1    25    28    1
     2    25    24    1
     3    25    26    1
     4    25    27    2
     5     1     4    1
     6     1    24    1
     7     1     2    1
     8     1     3    2
     9     6    11    1
    10     6    12    1
    11    29    36    1
    12    29    37    1
    13     7     9    1
    14     7    13    1
    15     8    10    1
    16     8    14    1
    17    28    37    1
    18     4     5    1
    19    30    33    1
    20    30    38    1
    21    31    34    1
    22    31    39    1
    23    32    35    1
    24    32    40    1
    25    41    42    1
    26    41    43    1
    27    15    19    2
    28    16    22    2
    29    17    12    1
    30    17    19   ar
    31    17    20   ar
    32    18    19   ar
    33    18    22   ar
    34    18    23    1
    35     9    10    1
    36     9    11    1
    37    10    12    1
    38    11     5    1
    39    33    34    1
    40    33    35    1
    41    34    36    1
    42    35    37    1
    43    36    42    1
    44    20    21   ar
    45    21    22   ar
@<TRIPOS>MOLECULE
*****
 43 45 0 0 0
SMALL
GASTEIGER

@<TRIPOS>ATOM
      1 P          21.8256   72.5350   -5.6136 P.3     1  UNL1        0.2189
      2 O          21.2575   74.0103   -5.2697 O.co2   1  UNL1       -0.4371
      3 O          23.0469   72.5135   -6.4850 O.2     1  UNL1       -0.5170
      4 O          20.5360   71.7472   -6.1917 O.3     1  UNL1       -0.3112
      5 C          20.0637   72.0809   -7.4853 C.3     1  UNL1        0.1811
      6 O          18.9130   70.0120   -7.0742 O.3     1  UNL1       -0.3308
      7 O          18.1557   70.0734   -9.9748 O.3     1  UNL1       -0.3794
      8 O          15.8838   70.9517   -8.7486 O.3     1  UNL1       -0.3779
      9 C          18.2873   71.1548   -9.0537 C.3     1  UNL1        0.1713
     10 C          17.1161   71.1733   -8.0937 C.3     1  UNL1        0.1895
     11 C          19.4543   70.8413   -8.1257 C.3     1  UNL1        0.1764
     12 C          17.4778   70.0527   -7.1337 C.3     1  UNL1        0.2383
     13 H          17.4167   70.2511  -10.5783 H       1  UNL1        0.2105
     14 H          15.6983   71.6915   -9.3478 H       1  UNL1        0.2106
     15 O          16.2851   68.0582   -5.5284 O.2     1  UNL1       -0.2464
     16 O          15.5349   71.0235   -2.0808 O.2     1  UNL1       -0.2670
     17 N          16.9625   70.2757   -5.8124 N.ar    1  UNL1       -0.2551
     18 N          15.9127   69.5363   -3.8130 N.ar    1  UNL1       -0.2743
     19 C          16.3821   69.2066   -5.0909 C.ar    1  UNL1        0.3323
     20 C          17.0357   71.5432   -5.2448 C.ar    1  UNL1        0.0869
     21 C          16.5822   71.8414   -4.0255 C.ar    1  UNL1        0.0795
     22 C          15.9615   70.7810   -3.2056 C.ar    1  UNL1        0.2626
     23 H          15.5040   68.8074   -3.2920 H       1  UNL1        0.1734
     24 O          22.0299   71.8745   -4.1525 O.3     1  UNL1       -0.2703
     25 P          23.2374   72.0089   -3.0862 P.3     1  UNL1        0.2208
     26 O          23.8741   73.4566   -3.4272 O.co2   1  UNL1       -0.4371
     27 O          24.2210   70.8753   -3.1242 O.2     1  UNL1       -0.5170
     28 O          22.5045   72.2111   -1.6625 O.3     1  UNL1       -0.2858
     29 O          23.3986   70.6510   -0.1187 O.3     1  UNL1       -0.3258
     30 O          20.4199   72.2753    2.2350 O.3     1  UNL1       -0.3794
     31 O          23.1656   72.9186    2.7783 O.3     1  UNL1       -0.3794
     32 O          19.9443   71.8163   -0.5833 O.3     1  UNL1       -0.3775
     33 C          21.4465   72.2883    1.2394 C.3     1  UNL1        0.1715
     34 C          22.7615   71.8711    1.9009 C.3     1  UNL1        0.1694
     35 C          21.0727   71.3136    0.1242 C.3     1  UNL1        0.1967
     36 C          23.8489   71.6035    0.8517 C.3     1  UNL1        0.1761
     37 C          22.2400   71.0801   -0.8366 C.3     1  UNL1        0.2704
     38 H          20.6509   72.8925    2.9458 H       1  UNL1        0.2105
     39 H          22.4701   73.0779    3.4355 H       1  UNL1        0.2105
     40 H          19.2122   71.9596    0.0359 H       1  UNL1        0.2106
     41 O          24.7524   70.1798    2.5445 O.3     1  UNL1       -0.3794
     42 C          25.1204   71.0350    1.4780 C.3     1  UNL1        0.1693
     43 H          25.5517   69.8103    2.9525 H       1  UNL1        0.2105
@<TRIPOS>UNITY_ATOM_ATTR
2 1
charge -1
26 1
charge -1
@<TRIPOS>BOND
     1    25    28    1
     2    25    24    1
     3    25    26    1
     4    25    27    2
     5     1     4    1
     6     1    24    1
     7     1     2    1
     8     1     3    2
     9     6    11    1
    10     6    12    1
    11    29    36    1
    12    29    37    1
    13     7     9    1
    14     7    13    1
    15     8    10    1
    16     8    14    1
    17    28    37    1
    18     4     5    1
    19    30    33    1
    20    30    38    1
    21    31    34    1
    22    31    39    1
    23    32    35    1
    24    32    40    1
    25    41    42    1
    26    41    43    1
    27    15    19    2
    28    16    22    2
    29    17    12    1
    30    17    19   ar
    31    17    20   ar
    32    18    19   ar
    33    18    22   ar
    34    18    23    1
    35     9    10    1
    36     9    11    1
    37    10    12    1
    38    11     5    1
    39    33    34    1
    40    33    35    1
    41    34    36    1
    42    35    37    1
    43    36    42    1
    44    20    21   ar
    45    21    22   ar
