@<TRIPOS>MOLECULE
UD1
 46 48 0 0 0
SMALL
GASTEIGER

@<TRIPOS>ATOM
      1 P          21.8109   70.8774   -2.5538 P.3     1  UNL1        0.2189
      2 O          23.2801   70.9312   -2.7188 O.2     1  UNL1       -0.5170
      3 O          21.3166   69.3476   -2.6414 O.3     1  UNL1       -0.4371
      4 O          21.1086   71.7350   -3.7218 O.3     1  UNL1       -0.3112
      5 C          20.1094   72.5431   -3.0983 C.3     1  UNL1        0.1811
      6 C          18.0197   71.4793   -5.8239 C.3     1  UNL1        0.2383
      7 C          18.0604   70.2611   -4.8676 C.3     1  UNL1        0.1895
      8 O          16.8455   69.5140   -4.9396 O.3     1  UNL1       -0.3779
      9 C          18.2110   70.9402   -3.4814 C.3     1  UNL1        0.1713
     10 C          18.7703   72.3384   -3.8083 C.3     1  UNL1        0.1764
     11 O          18.9569   72.4043   -5.2324 O.3     1  UNL1       -0.3308
     12 O          16.9412   71.0413   -2.8332 O.3     1  UNL1       -0.3794
     13 H          16.9353   68.7732   -4.3242 H       1  UNL1        0.2106
     14 H          16.6177   70.1388   -2.7105 H       1  UNL1        0.2105
     15 N          18.4504   71.0979   -7.1695 N.ar    1  UNL1       -0.2551
     16 C          17.5385   70.6975   -8.0725 C.ar    1  UNL1        0.3323
     17 N          17.9056   70.3446   -9.3186 N.ar    1  UNL1       -0.2743
     18 C          19.2041   70.3789   -9.6798 C.ar    1  UNL1        0.2626
     19 C          20.1753   70.7928   -8.7373 C.ar    1  UNL1        0.0795
     20 C          19.7789   71.1464   -7.4958 C.ar    1  UNL1        0.0869
     21 O          16.3634   70.6613   -7.7617 O.2     1  UNL1       -0.2464
     22 O          19.5377   70.0555  -10.8048 O.2     1  UNL1       -0.2670
     23 H          17.2339   70.0628   -9.9586 H       1  UNL1        0.1734
     24 O          21.4088   71.4912   -1.1219 O.3     1  UNL1       -0.2703
     25 P          22.3294   70.7560   -0.0259 P.3     1  UNL1        0.2208
     26 O          23.5619   70.2550   -0.6731 O.2     1  UNL1       -0.5170
     27 O          21.5198   69.5201    0.6140 O.3     1  UNL1       -0.4371
     28 O          22.7195   71.7992    1.1360 O.3     1  UNL1       -0.2865
     29 C          21.8702   72.9365    0.9742 C.3     1  UNL1        0.2611
     30 C          22.7235   74.1597    0.6340 C.3     1  UNL1        0.1582
     31 C          23.7341   74.3953    1.7621 C.3     1  UNL1        0.1625
     32 C          22.9751   74.4788    3.0906 C.3     1  UNL1        0.1686
     33 C          22.1050   73.2299    3.2469 C.3     1  UNL1        0.1760
     34 O          24.4349   75.6185    1.5295 O.3     1  UNL1       -0.3801
     35 O          23.9081   74.5512    4.1704 O.3     1  UNL1       -0.3794
     36 O          21.1537   73.1691    2.1849 O.3     1  UNL1       -0.3263
     37 H          25.0586   75.7266    2.2607 H       1  UNL1        0.2105
     38 H          23.3891   74.6015    4.9856 H       1  UNL1        0.2105
     39 C          23.0818   74.5954   -1.7359 C.2     1  UNL1        0.2231
     40 C          23.8164   74.3530   -3.0296 C.3     1  UNL1        0.0946
     41 N          23.4371   73.9250   -0.6230 N.am    1  UNL1       -0.2994
     42 O          22.1700   75.3937   -1.6968 O.2     1  UNL1       -0.2751
     43 H          24.1666   73.2859   -0.6540 H       1  UNL1        0.1496
     44 C          21.3673   73.2881    4.5861 C.3     1  UNL1        0.1693
     45 O          22.1212   72.5863    5.5766 O.3     1  UNL1       -0.3794
     46 H          21.6226   72.6468    6.4027 H       1  UNL1        0.2105
@<TRIPOS>BOND
     1    29    30    1
     2    29    28    1
     3    29    36    1
     4    30    31    1
     5    30    41    1
     6    31    32    1
     7    31    34    1
     8    32    33    1
     9    32    35    1
    10    33    44    1
    11    33    36    1
    12    44    45    1
    13    39    40    1
    14    39    41   am
    15    39    42    2
    16    41    43    1
    17    28    25    1
    18    34    37    1
    19    35    38    1
    20    45    46    1
    21    15    16   ar
    22    15    20   ar
    23    15     6    1
    24    16    17   ar
    25    16    21    2
    26    17    18   ar
    27    17    23    1
    28    18    19   ar
    29    18    22    2
    30    19    20   ar
    31     6     7    1
    32     6    11    1
    33     7     8    1
    34     7     9    1
    35     8    13    1
    36     9    10    1
    37     9    12    1
    38    10    11    1
    39    10     5    1
    40    12    14    1
    41     5     4    1
    42     4     1    1
    43     1     2    2
    44     1     3    1
    45     1    24    1
    46    24    25    1
    47    25    26    2
    48    25    27    1
@<TRIPOS>MOLECULE
UD1
 46 48 0 0 0
SMALL
GASTEIGER

@<TRIPOS>ATOM
      1 P          21.7246   70.4807   -0.6178 P.3     1  UNL1        0.2189
      2 O          23.0987   70.5665   -1.1594 O.2     1  UNL1       -0.5170
      3 O          21.6359   69.2614    0.4299 O.3     1  UNL1       -0.4371
      4 O          20.6880   70.2274   -1.8236 O.3     1  UNL1       -0.3112
      5 C          20.6460   71.4302   -2.5930 C.3     1  UNL1        0.1811
      6 C          18.1964   71.2179   -5.2163 C.3     1  UNL1        0.2383
      7 C          18.0400   69.8916   -4.4309 C.3     1  UNL1        0.1895
      8 O          16.6913   69.4249   -4.4793 O.3     1  UNL1       -0.3779
      9 C          18.4266   70.3184   -2.9909 C.3     1  UNL1        0.1713
     10 C          19.2490   71.6062   -3.1902 C.3     1  UNL1        0.1764
     11 O          19.3480   71.8380   -4.6057 O.3     1  UNL1       -0.3308
     12 O          17.2551   70.5802   -2.2151 O.3     1  UNL1       -0.3794
     13 H          16.6619   68.6004   -3.9746 H       1  UNL1        0.2106
     14 H          16.7549   69.7541   -2.1773 H       1  UNL1        0.2105
     15 N          18.4428   70.9556   -6.6347 N.ar    1  UNL1       -0.2551
     16 C          17.4040   70.7939   -7.4726 C.ar    1  UNL1        0.3323
     17 N          17.6009   70.5555   -8.7828 N.ar    1  UNL1       -0.2743
     18 C          18.8523   70.4655   -9.2765 C.ar    1  UNL1        0.2626
     19 C          19.9551   70.6277   -8.4045 C.ar    1  UNL1        0.0795
     20 C          19.7290   70.8713   -7.0957 C.ar    1  UNL1        0.0869
     21 O          16.2694   70.8724   -7.0424 O.2     1  UNL1       -0.2464
     22 O          19.0315   70.2452  -10.4601 O.2     1  UNL1       -0.2670
     23 H          16.8399   70.4462   -9.3737 H       1  UNL1        0.1734
     24 O          21.3545   71.8579    0.1273 O.3     1  UNL1       -0.2703
     25 P          22.0763   71.8171    1.5649 P.3     1  UNL1        0.2208
     26 O          22.7767   70.5243    1.7286 O.2     1  UNL1       -0.5170
     27 O          20.9721   71.9792    2.7254 O.3     1  UNL1       -0.4371
     28 O          23.1404   73.0204    1.6669 O.3     1  UNL1       -0.2865
     29 C          22.4482   74.1398    2.2228 C.3     1  UNL1        0.2611
     30 C          22.7338   75.3814    1.3761 C.3     1  UNL1        0.1582
     31 C          24.2452   75.6363    1.3541 C.3     1  UNL1        0.1625
     32 C          24.7524   75.7013    2.7986 C.3     1  UNL1        0.1686
     33 C          24.3170   74.4339    3.5372 C.3     1  UNL1        0.1760
     34 O          24.5124   76.8745    0.6931 O.3     1  UNL1       -0.3801
     35 O          26.1784   75.7914    2.8009 O.3     1  UNL1       -0.3794
     36 O          22.8923   74.3549    3.5606 O.3     1  UNL1       -0.3263
     37 H          25.4720   76.9944    0.7018 H       1  UNL1        0.2105
     38 H          26.4548   75.8292    3.7275 H       1  UNL1        0.2105
     39 C          23.0966   74.7137   -0.9383 C.2     1  UNL1        0.2231
     40 C          22.6013   74.4907   -2.3445 C.3     1  UNL1        0.0946
     41 N          22.2530   75.1642    0.0101 N.am    1  UNL1       -0.2994
     42 O          24.2552   74.4881   -0.6607 O.2     1  UNL1       -0.2751
     43 H          21.3259   75.3450   -0.2118 H       1  UNL1        0.1496
     44 C          24.8465   74.4740    4.9722 C.3     1  UNL1        0.1693
     45 O          25.0335   75.8327    5.3735 O.3     1  UNL1       -0.3794
     46 H          25.3672   75.8131    6.2807 H       1  UNL1        0.2105
@<TRIPOS>BOND
     1    29    30    1
     2    29    28    1
     3    29    36    1
     4    30    31    1
     5    30    41    1
     6    31    32    1
     7    31    34    1
     8    32    33    1
     9    32    35    1
    10    33    44    1
    11    33    36    1
    12    44    45    1
    13    39    40    1
    14    39    41   am
    15    39    42    2
    16    41    43    1
    17    28    25    1
    18    34    37    1
    19    35    38    1
    20    45    46    1
    21    15    16   ar
    22    15    20   ar
    23    15     6    1
    24    16    17   ar
    25    16    21    2
    26    17    18   ar
    27    17    23    1
    28    18    19   ar
    29    18    22    2
    30    19    20   ar
    31     6     7    1
    32     6    11    1
    33     7     8    1
    34     7     9    1
    35     8    13    1
    36     9    10    1
    37     9    12    1
    38    10    11    1
    39    10     5    1
    40    12    14    1
    41     5     4    1
    42     4     1    1
    43     1     2    2
    44     1     3    1
    45     1    24    1
    46    24    25    1
    47    25    26    2
    48    25    27    1
@<TRIPOS>MOLECULE
UD1
 46 48 0 0 0
SMALL
GASTEIGER

@<TRIPOS>ATOM
      1 P          21.9905   70.3565   -0.4524 P.3     1  UNL1        0.2189
      2 O          22.8672   69.2844    0.0679 O.2     1  UNL1       -0.5170
      3 O          21.3204   71.1472    0.7798 O.3     1  UNL1       -0.4371
      4 O          20.8334   69.7072   -1.3648 O.3     1  UNL1       -0.3112
      5 C          20.9991   70.2358   -2.6814 C.3     1  UNL1        0.1811
      6 C          18.4793   70.9231   -5.1524 C.3     1  UNL1        0.2383
      7 C          18.0208   69.6009   -4.4878 C.3     1  UNL1        0.1895
      8 O          16.5969   69.4923   -4.4945 O.3     1  UNL1       -0.3779
      9 C          18.5568   69.7605   -3.0413 C.3     1  UNL1        0.1713
     10 C          19.6712   70.8170   -3.1695 C.3     1  UNL1        0.1764
     11 O          19.7727   71.1679   -4.5601 O.3     1  UNL1       -0.3308
     12 O          17.5201   70.2203   -2.1715 O.3     1  UNL1       -0.3794
     13 H          16.3780   68.6516   -4.0693 H       1  UNL1        0.2106
     14 H          16.8283   69.5455   -2.1804 H       1  UNL1        0.2105
     15 N          18.5976   70.7621   -6.6020 N.ar    1  UNL1       -0.2551
     16 C          17.4959   70.8168   -7.3706 C.ar    1  UNL1        0.3323
     17 N          17.5754   70.6759   -8.7070 N.ar    1  UNL1       -0.2743
     18 C          18.7689   70.4670   -9.2985 C.ar    1  UNL1        0.2626
     19 C          19.9360   70.4012   -8.5007 C.ar    1  UNL1        0.0795
     20 C          19.8283   70.5512   -7.1631 C.ar    1  UNL1        0.0869
     21 O          16.4123   71.0047   -6.8519 O.2     1  UNL1       -0.2464
     22 O          18.8414   70.3347  -10.5062 O.2     1  UNL1       -0.2670
     23 H          16.7711   70.7230   -9.2465 H       1  UNL1        0.1734
     24 O          22.8612   71.3795   -1.3379 O.3     1  UNL1       -0.2703
     25 P          22.3199   72.8582   -1.0066 P.3     1  UNL1        0.2208
     26 O          23.1894   73.4846    0.0133 O.2     1  UNL1       -0.5170
     27 O          20.8143   72.7656   -0.4435 O.3     1  UNL1       -0.4371
     28 O          22.3362   73.7497   -2.3465 O.3     1  UNL1       -0.2865
     29 C          23.5315   73.4137   -3.0534 C.3     1  UNL1        0.2611
     30 C          24.4233   74.6524   -3.1551 C.3     1  UNL1        0.1582
     31 C          23.6577   75.7626   -3.8837 C.3     1  UNL1        0.1625
     32 C          23.1511   75.2123   -5.2211 C.3     1  UNL1        0.1686
     33 C          22.3525   73.9328   -4.9631 C.3     1  UNL1        0.1760
     34 O          24.5286   76.8710   -4.1173 O.3     1  UNL1       -0.3801
     35 O          22.3116   76.1826   -5.8500 O.3     1  UNL1       -0.3794
     36 O          23.1954   72.9519   -4.3600 O.3     1  UNL1       -0.3263
     37 H          24.0073   77.5441   -4.5760 H       1  UNL1        0.2105
     38 H          22.0148   75.7959   -6.6859 H       1  UNL1        0.2105
     39 C          26.0751   75.3473   -1.5050 C.2     1  UNL1        0.2231
     40 C          26.4476   75.8147   -0.1212 C.3     1  UNL1        0.0946
     41 N          24.7856   75.1069   -1.8111 N.am    1  UNL1       -0.2994
     42 O          26.9365   75.1868   -2.3431 O.2     1  UNL1       -0.2751
     43 H          24.0961   75.2350   -1.1405 H       1  UNL1        0.1496
     44 C          21.8144   73.3927   -6.2897 C.3     1  UNL1        0.1693
     45 O          22.8495   72.6788   -6.9688 O.3     1  UNL1       -0.3794
     46 H          22.4698   72.3564   -7.7974 H       1  UNL1        0.2105
@<TRIPOS>BOND
     1    29    30    1
     2    29    28    1
     3    29    36    1
     4    30    31    1
     5    30    41    1
     6    31    32    1
     7    31    34    1
     8    32    33    1
     9    32    35    1
    10    33    44    1
    11    33    36    1
    12    44    45    1
    13    39    40    1
    14    39    41   am
    15    39    42    2
    16    41    43    1
    17    28    25    1
    18    34    37    1
    19    35    38    1
    20    45    46    1
    21    15    16   ar
    22    15    20   ar
    23    15     6    1
    24    16    17   ar
    25    16    21    2
    26    17    18   ar
    27    17    23    1
    28    18    19   ar
    29    18    22    2
    30    19    20   ar
    31     6     7    1
    32     6    11    1
    33     7     8    1
    34     7     9    1
    35     8    13    1
    36     9    10    1
    37     9    12    1
    38    10    11    1
    39    10     5    1
    40    12    14    1
    41     5     4    1
    42     4     1    1
    43     1     2    2
    44     1     3    1
    45     1    24    1
    46    24    25    1
    47    25    26    2
    48    25    27    1
@<TRIPOS>MOLECULE
UD1
 46 48 0 0 0
SMALL
GASTEIGER

@<TRIPOS>ATOM
      1 P          22.4965   72.7596   -2.3778 P.3     1  UNL1        0.2189
      2 O          23.3363   71.8293   -3.1638 O.2     1  UNL1       -0.5170
      3 O          23.3798   73.4189   -1.2041 O.3     1  UNL1       -0.4371
      4 O          21.2630   71.9519   -1.7306 O.3     1  UNL1       -0.3112
      5 C          20.8756   70.9576   -2.6801 C.3     1  UNL1        0.1811
      6 C          18.3391   71.0860   -5.2251 C.3     1  UNL1        0.2383
      7 C          18.0908   69.7411   -4.4971 C.3     1  UNL1        0.1895
      8 O          16.7055   69.3952   -4.5208 O.3     1  UNL1       -0.3779
      9 C          18.5564   70.0618   -3.0530 C.3     1  UNL1        0.1713
     10 C          19.4821   71.2823   -3.2204 C.3     1  UNL1        0.1764
     11 O          19.5584   71.5739   -4.6262 O.3     1  UNL1       -0.3308
     12 O          17.4363   70.3850   -2.2262 O.3     1  UNL1       -0.3794
     13 H          16.6192   68.5524   -4.0541 H       1  UNL1        0.2106
     14 H          16.8669   69.6041   -2.2096 H       1  UNL1        0.2105
     15 N          18.5187   70.8734   -6.6617 N.ar    1  UNL1       -0.2551
     16 C          17.4447   70.8381   -7.4695 C.ar    1  UNL1        0.3323
     17 N          17.5804   70.6482   -8.7953 N.ar    1  UNL1       -0.2743
     18 C          18.8041   70.4800   -9.3359 C.ar    1  UNL1        0.2626
     19 C          19.9429   70.5090   -8.4962 C.ar    1  UNL1        0.0795
     20 C          19.7785   70.7065   -7.1706 C.ar    1  UNL1        0.0869
     21 O          16.3344   70.9883   -6.9969 O.2     1  UNL1       -0.2464
     22 O          18.9276   70.3035  -10.5338 O.2     1  UNL1       -0.2670
     23 H          16.7950   70.6303   -9.3637 H       1  UNL1        0.1734
     24 O          21.9324   73.9181   -3.3415 O.3     1  UNL1       -0.2703
     25 P          22.8884   73.9527   -4.6355 P.3     1  UNL1        0.2208
     26 O          22.9970   72.5915   -5.2049 O.2     1  UNL1       -0.5170
     27 O          24.3510   74.4736   -4.2093 O.3     1  UNL1       -0.4371
     28 O          22.2662   74.9472   -5.7375 O.3     1  UNL1       -0.2865
     29 C          22.0901   74.1839   -6.9323 C.3     1  UNL1        0.2611
     30 C          22.4691   75.0422   -8.1404 C.3     1  UNL1        0.1582
     31 C          21.5850   76.2943   -8.1629 C.3     1  UNL1        0.1625
     32 C          20.1169   75.8587   -8.1074 C.3     1  UNL1        0.1686
     33 C          19.9147   74.9410   -6.8997 C.3     1  UNL1        0.1760
     34 O          21.8250   77.0284   -9.3649 O.3     1  UNL1       -0.3801
     35 O          19.2812   77.0105   -7.9794 O.3     1  UNL1       -0.3794
     36 O          20.7277   73.7763   -7.0377 O.3     1  UNL1       -0.3263
     37 H          21.2501   77.8055   -9.3372 H       1  UNL1        0.2105
     38 H          18.3681   76.6915   -7.9473 H       1  UNL1        0.2105
     39 C          24.2078   76.6104   -7.4678 C.2     1  UNL1        0.2231
     40 C          25.6558   77.0162   -7.3644 C.3     1  UNL1        0.0946
     41 N          23.8757   75.4367   -8.0392 N.am    1  UNL1       -0.2994
     42 O          23.3411   77.3409   -7.0373 O.2     1  UNL1       -0.2751
     43 H          24.5690   74.8519   -8.3841 H       1  UNL1        0.1496
     44 C          18.4443   74.5263   -6.8165 C.3     1  UNL1        0.1693
     45 O          17.9172   74.3714   -8.1357 O.3     1  UNL1       -0.3794
     46 H          16.9913   74.1108   -8.0382 H       1  UNL1        0.2105
@<TRIPOS>BOND
     1    29    30    1
     2    29    28    1
     3    29    36    1
     4    30    31    1
     5    30    41    1
     6    31    32    1
     7    31    34    1
     8    32    33    1
     9    32    35    1
    10    33    44    1
    11    33    36    1
    12    44    45    1
    13    39    40    1
    14    39    41   am
    15    39    42    2
    16    41    43    1
    17    28    25    1
    18    34    37    1
    19    35    38    1
    20    45    46    1
    21    15    16   ar
    22    15    20   ar
    23    15     6    1
    24    16    17   ar
    25    16    21    2
    26    17    18   ar
    27    17    23    1
    28    18    19   ar
    29    18    22    2
    30    19    20   ar
    31     6     7    1
    32     6    11    1
    33     7     8    1
    34     7     9    1
    35     8    13    1
    36     9    10    1
    37     9    12    1
    38    10    11    1
    39    10     5    1
    40    12    14    1
    41     5     4    1
    42     4     1    1
    43     1     2    2
    44     1     3    1
    45     1    24    1
    46    24    25    1
    47    25    26    2
    48    25    27    1
@<TRIPOS>MOLECULE
UD1
 46 48 0 0 0
SMALL
GASTEIGER

@<TRIPOS>ATOM
      1 P          21.6640   73.2196   -8.2348 P.3     1  UNL1        0.2189
      2 O          22.5302   72.6909   -7.1583 O.2     1  UNL1       -0.5170
      3 O          20.6564   74.3165   -7.6229 O.3     1  UNL1       -0.4371
      4 O          20.8147   72.0134   -8.8805 O.3     1  UNL1       -0.3112
      5 C          19.5165   72.5320   -9.1737 C.3     1  UNL1        0.1811
      6 C          18.0234   70.7610   -6.4238 C.3     1  UNL1        0.2383
      7 C          17.3319   72.1474   -6.4140 C.3     1  UNL1        0.1895
      8 O          15.9960   72.0487   -5.9193 O.3     1  UNL1       -0.3779
      9 C          17.3385   72.5252   -7.9182 C.3     1  UNL1        0.1713
     10 C          18.4535   71.6480   -8.5196 C.3     1  UNL1        0.1764
     11 O          19.0378   70.8970   -7.4417 O.3     1  UNL1       -0.3308
     12 O          16.0764   72.2211   -8.5160 O.3     1  UNL1       -0.3794
     13 H          15.6235   72.9411   -5.9385 H       1  UNL1        0.2106
     14 H          15.4144   72.7558   -8.0579 H       1  UNL1        0.2105
     15 N          18.6316   70.4748   -5.1240 N.ar    1  UNL1       -0.2551
     16 C          17.9257   69.8157   -4.1888 C.ar    1  UNL1        0.3323
     17 N          18.4611   69.5353   -2.9859 N.ar    1  UNL1       -0.2743
     18 C          19.7196   69.9223   -2.6954 C.ar    1  UNL1        0.2626
     19 C          20.4719   70.6221   -3.6687 C.ar    1  UNL1        0.0795
     20 C          19.9122   70.8855   -4.8690 C.ar    1  UNL1        0.0869
     21 O          16.7894   69.4601   -4.4358 O.2     1  UNL1       -0.2464
     22 O          20.2030   69.6736   -1.6064 O.2     1  UNL1       -0.2670
     23 H          17.9392   69.0549   -2.3248 H       1  UNL1        0.1734
     24 O          22.5760   73.9020   -9.3712 O.3     1  UNL1       -0.2703
     25 P          23.3140   75.1560   -8.6841 P.3     1  UNL1        0.2208
     26 O          23.1819   75.0608   -7.2136 O.2     1  UNL1       -0.5170
     27 O          22.6369   76.5242   -9.1955 O.3     1  UNL1       -0.4371
     28 O          24.8729   75.1481   -9.0844 O.3     1  UNL1       -0.2865
     29 C          25.2648   76.5118   -9.2514 C.3     1  UNL1        0.2611
     30 C          26.2029   76.6239  -10.4545 C.3     1  UNL1        0.1582
     31 C          27.4283   75.7336  -10.2193 C.3     1  UNL1        0.1625
     32 C          28.0518   76.1045   -8.8696 C.3     1  UNL1        0.1686
     33 C          26.9747   76.0286   -7.7854 C.3     1  UNL1        0.1760
     34 O          28.3802   75.9433  -11.2640 O.3     1  UNL1       -0.3801
     35 O          29.1061   75.1902   -8.5628 O.3     1  UNL1       -0.3794
     36 O          25.9332   76.9604   -8.0744 O.3     1  UNL1       -0.3263
     37 H          29.1324   75.3650  -11.0769 H       1  UNL1        0.2105
     38 H          29.4693   75.4591   -7.7070 H       1  UNL1        0.2105
     39 C          24.9291   77.0930  -12.4773 C.2     1  UNL1        0.2231
     40 C          24.2084   76.6415  -13.7219 C.3     1  UNL1        0.0946
     41 N          25.5031   76.1857  -11.6639 N.am    1  UNL1       -0.2994
     42 O          24.9918   78.2735  -12.2077 O.2     1  UNL1       -0.2751
     43 H          25.4528   75.2410  -11.8794 H       1  UNL1        0.1496
     44 C          27.5947   76.3658   -6.4278 C.3     1  UNL1        0.1693
     45 O          27.9416   75.1573   -5.7487 O.3     1  UNL1       -0.3794
     46 H          28.3275   75.4140   -4.9003 H       1  UNL1        0.2105
@<TRIPOS>BOND
     1    29    30    1
     2    29    28    1
     3    29    36    1
     4    30    31    1
     5    30    41    1
     6    31    32    1
     7    31    34    1
     8    32    33    1
     9    32    35    1
    10    33    44    1
    11    33    36    1
    12    44    45    1
    13    39    40    1
    14    39    41   am
    15    39    42    2
    16    41    43    1
    17    28    25    1
    18    34    37    1
    19    35    38    1
    20    45    46    1
    21    15    16   ar
    22    15    20   ar
    23    15     6    1
    24    16    17   ar
    25    16    21    2
    26    17    18   ar
    27    17    23    1
    28    18    19   ar
    29    18    22    2
    30    19    20   ar
    31     6     7    1
    32     6    11    1
    33     7     8    1
    34     7     9    1
    35     8    13    1
    36     9    10    1
    37     9    12    1
    38    10    11    1
    39    10     5    1
    40    12    14    1
    41     5     4    1
    42     4     1    1
    43     1     2    2
    44     1     3    1
    45     1    24    1
    46    24    25    1
    47    25    26    2
    48    25    27    1
@<TRIPOS>MOLECULE
UD1
 46 48 0 0 0
SMALL
GASTEIGER

@<TRIPOS>ATOM
      1 P          20.2392   70.2614   -2.5887 P.3     1  UNL1        0.2189
      2 O          21.4884   69.5708   -2.9780 O.2     1  UNL1       -0.5170
      3 O          19.1394   69.1720   -2.1457 O.3     1  UNL1       -0.4371
      4 O          19.6816   71.1069   -3.8405 O.3     1  UNL1       -0.3112
      5 C          18.3247   70.7068   -4.0387 C.3     1  UNL1        0.1811
      6 C          18.5393   72.4965   -7.1497 C.3     1  UNL1        0.2383
      7 C          18.3450   71.0168   -7.5657 C.3     1  UNL1        0.1895
      8 O          17.6389   70.9223   -8.8034 O.3     1  UNL1       -0.3779
      9 C          17.4907   70.4596   -6.3974 C.3     1  UNL1        0.1713
     10 C          17.7440   71.4489   -5.2434 C.3     1  UNL1        0.1764
     11 O          18.6858   72.4275   -5.7154 O.3     1  UNL1       -0.3308
     12 O          16.1068   70.4407   -6.7541 O.3     1  UNL1       -0.3794
     13 H          17.5519   69.9804   -9.0051 H       1  UNL1        0.2106
     14 H          16.0230   69.8527   -7.5165 H       1  UNL1        0.2105
     15 N          19.7436   73.0552   -7.7653 N.ar    1  UNL1       -0.2551
     16 C          20.6803   72.2305   -8.2651 C.ar    1  UNL1        0.3323
     17 N          21.7961   72.7166   -8.8404 N.ar    1  UNL1       -0.2743
     18 C          21.9969   74.0478   -8.9163 C.ar    1  UNL1        0.2626
     19 C          21.0216   74.9272   -8.3887 C.ar    1  UNL1        0.0795
     20 C          19.9093   74.4128   -7.8219 C.ar    1  UNL1        0.0869
     21 O          20.5136   71.0276   -8.2043 O.2     1  UNL1       -0.2464
     22 O          23.0075   74.4883   -9.4320 O.2     1  UNL1       -0.2670
     23 H          22.4591   72.1073   -9.2001 H       1  UNL1        0.1734
     24 O          20.5364   71.2559   -1.3594 O.3     1  UNL1       -0.2703
     25 P          21.8754   70.7230   -0.6436 P.3     1  UNL1        0.2208
     26 O          22.9158   70.4750   -1.6658 O.2     1  UNL1       -0.5170
     27 O          21.5570   69.3531    0.1403 O.3     1  UNL1       -0.4371
     28 O          22.4027   71.8275    0.4017 O.3     1  UNL1       -0.2865
     29 C          21.2591   72.5641    0.8384 C.3     1  UNL1        0.2611
     30 C          21.4926   74.0549    0.5872 C.3     1  UNL1        0.1582
     31 C          22.7464   74.5010    1.3478 C.3     1  UNL1        0.1625
     32 C          22.5939   74.1039    2.8199 C.3     1  UNL1        0.1686
     33 C          22.2804   72.6085    2.9027 C.3     1  UNL1        0.1760
     34 O          22.8908   75.9187    1.2433 O.3     1  UNL1       -0.3801
     35 O          23.8105   74.3779    3.5173 O.3     1  UNL1       -0.3794
     36 O          21.0515   72.3356    2.2305 O.3     1  UNL1       -0.3263
     37 H          23.6898   76.1551    1.7343 H       1  UNL1        0.2105
     38 H          23.6712   74.1130    4.4376 H       1  UNL1        0.2105
     39 C          22.9207   74.3020   -1.3708 C.2     1  UNL1        0.2231
     40 C          23.1132   74.5412   -2.8466 C.3     1  UNL1        0.0946
     41 N          21.6801   74.2867   -0.8465 N.am    1  UNL1       -0.2994
     42 O          23.8830   74.1240   -0.6549 O.2     1  UNL1       -0.2751
     43 H          20.9099   74.4294   -1.4192 H       1  UNL1        0.1496
     44 C          22.1582   72.1949    4.3708 C.3     1  UNL1        0.1693
     45 O          21.3078   73.1162    5.0565 O.3     1  UNL1       -0.3794
     46 H          21.2580   72.8203    5.9755 H       1  UNL1        0.2105
@<TRIPOS>BOND
     1    29    30    1
     2    29    28    1
     3    29    36    1
     4    30    31    1
     5    30    41    1
     6    31    32    1
     7    31    34    1
     8    32    33    1
     9    32    35    1
    10    33    44    1
    11    33    36    1
    12    44    45    1
    13    39    40    1
    14    39    41   am
    15    39    42    2
    16    41    43    1
    17    28    25    1
    18    34    37    1
    19    35    38    1
    20    45    46    1
    21    15    16   ar
    22    15    20   ar
    23    15     6    1
    24    16    17   ar
    25    16    21    2
    26    17    18   ar
    27    17    23    1
    28    18    19   ar
    29    18    22    2
    30    19    20   ar
    31     6     7    1
    32     6    11    1
    33     7     8    1
    34     7     9    1
    35     8    13    1
    36     9    10    1
    37     9    12    1
    38    10    11    1
    39    10     5    1
    40    12    14    1
    41     5     4    1
    42     4     1    1
    43     1     2    2
    44     1     3    1
    45     1    24    1
    46    24    25    1
    47    25    26    2
    48    25    27    1
@<TRIPOS>MOLECULE
UD1
 46 48 0 0 0
SMALL
GASTEIGER

@<TRIPOS>ATOM
      1 P          21.8952   74.4960   -7.1956 P.3     1  UNL1        0.2189
      2 O          20.8982   75.1345   -8.0827 O.2     1  UNL1       -0.5170
      3 O          23.3182   75.2283   -7.3726 O.3     1  UNL1       -0.4371
      4 O          22.0412   72.9405   -7.5853 O.3     1  UNL1       -0.3112
      5 C          21.2298   72.7254   -8.7410 C.3     1  UNL1        0.1811
      6 C          18.6713   70.9929   -6.9026 C.3     1  UNL1        0.2383
      7 C          17.8977   71.8148   -7.9638 C.3     1  UNL1        0.1895
      8 O          16.6930   71.1503   -8.3465 O.3     1  UNL1       -0.3779
      9 C          18.9053   71.8559   -9.1420 C.3     1  UNL1        0.1713
     10 C          20.2666   71.5662   -8.4806 C.3     1  UNL1        0.1764
     11 O          20.0374   71.4289   -7.0679 O.3     1  UNL1       -0.3308
     12 O          18.5872   70.8514  -10.1077 O.3     1  UNL1       -0.3794
     13 H          16.2608   71.7113   -9.0052 H       1  UNL1        0.2106
     14 H          17.7025   71.0539  -10.4401 H       1  UNL1        0.2105
     15 N          18.1906   71.3009   -5.5552 N.ar    1  UNL1       -0.2551
     16 C          17.2330   70.5387   -4.9990 C.ar    1  UNL1        0.3323
     17 N          16.7746   70.7964   -3.7597 N.ar    1  UNL1       -0.2743
     18 C          17.2661   71.8362   -3.0560 C.ar    1  UNL1        0.2626
     19 C          18.2702   72.6504   -3.6320 C.ar    1  UNL1        0.0795
     20 C          18.7157   72.3662   -4.8746 C.ar    1  UNL1        0.0869
     21 O          16.7798   69.5973   -5.6210 O.2     1  UNL1       -0.2464
     22 O          16.8490   72.0730   -1.9374 O.2     1  UNL1       -0.2670
     23 H          16.0870   70.2333   -3.3722 H       1  UNL1        0.1734
     24 O          21.4120   74.6227   -5.6661 O.3     1  UNL1       -0.2703
     25 P          22.6505   74.1626   -4.7476 P.3     1  UNL1        0.2208
     26 O          23.7923   75.0780   -4.9648 O.2     1  UNL1       -0.5170
     27 O          23.0836   72.6628   -5.1415 O.3     1  UNL1       -0.4371
     28 O          22.2161   74.2048   -3.1984 O.3     1  UNL1       -0.2865
     29 C          23.1110   73.3426   -2.4934 C.3     1  UNL1        0.2611
     30 C          22.3032   72.3854   -1.6152 C.3     1  UNL1        0.1582
     31 C          21.4530   73.2012   -0.6349 C.3     1  UNL1        0.1625
     32 C          22.3703   74.1656    0.1244 C.3     1  UNL1        0.1686
     33 C          23.1709   74.9909   -0.8852 C.3     1  UNL1        0.1760
     34 O          20.8092   72.3208    0.2881 O.3     1  UNL1       -0.3801
     35 O          21.5807   75.0366    0.9366 O.3     1  UNL1       -0.3794
     36 O          23.9815   74.1261   -1.6799 O.3     1  UNL1       -0.3263
     37 H          20.2864   72.8746    0.8842 H       1  UNL1        0.2105
     38 H          22.1963   75.6259    1.3952 H       1  UNL1        0.2105
     39 C          21.2360   70.2659   -2.1656 C.2     1  UNL1        0.2231
     40 C          20.3371   69.4230   -3.0340 C.3     1  UNL1        0.0946
     41 N          21.4298   71.5663   -2.4582 N.am    1  UNL1       -0.2994
     42 O          21.7855   69.7731   -1.2037 O.2     1  UNL1       -0.2751
     43 H          20.9903   71.9608   -3.2281 H       1  UNL1        0.1496
     44 C          24.0668   75.9803   -0.1372 C.3     1  UNL1        0.1693
     45 O          25.2574   75.3159    0.2908 O.3     1  UNL1       -0.3794
     46 H          25.7923   75.9727    0.7568 H       1  UNL1        0.2105
@<TRIPOS>BOND
     1    29    30    1
     2    29    28    1
     3    29    36    1
     4    30    31    1
     5    30    41    1
     6    31    32    1
     7    31    34    1
     8    32    33    1
     9    32    35    1
    10    33    44    1
    11    33    36    1
    12    44    45    1
    13    39    40    1
    14    39    41   am
    15    39    42    2
    16    41    43    1
    17    28    25    1
    18    34    37    1
    19    35    38    1
    20    45    46    1
    21    15    16   ar
    22    15    20   ar
    23    15     6    1
    24    16    17   ar
    25    16    21    2
    26    17    18   ar
    27    17    23    1
    28    18    19   ar
    29    18    22    2
    30    19    20   ar
    31     6     7    1
    32     6    11    1
    33     7     8    1
    34     7     9    1
    35     8    13    1
    36     9    10    1
    37     9    12    1
    38    10    11    1
    39    10     5    1
    40    12    14    1
    41     5     4    1
    42     4     1    1
    43     1     2    2
    44     1     3    1
    45     1    24    1
    46    24    25    1
    47    25    26    2
    48    25    27    1
@<TRIPOS>MOLECULE
UD1
 46 48 0 0 0
SMALL
GASTEIGER

@<TRIPOS>ATOM
      1 P          17.4148   73.4625   -2.2265 P.3     1  UNL1        0.2189
      2 O          18.2670   72.2764   -1.9907 O.2     1  UNL1       -0.5170
      3 O          15.8894   73.1110   -1.8493 O.3     1  UNL1       -0.4371
      4 O          17.4995   73.8833   -3.7785 O.3     1  UNL1       -0.3112
      5 C          16.3747   74.7236   -4.0414 C.3     1  UNL1        0.1811
      6 C          16.8627   74.1029   -7.5491 C.3     1  UNL1        0.2383
      7 C          15.3766   73.7465   -7.2949 C.3     1  UNL1        0.1895
      8 O          14.5846   73.9988   -8.4561 O.3     1  UNL1       -0.3779
      9 C          15.0004   74.7185   -6.1465 C.3     1  UNL1        0.1713
     10 C          16.3559   75.1035   -5.5228 C.3     1  UNL1        0.1764
     11 O          17.3755   74.3748   -6.2274 O.3     1  UNL1       -0.3308
     12 O          14.3353   75.8723   -6.6653 O.3     1  UNL1       -0.3794
     13 H          13.6751   73.7570   -8.2328 H       1  UNL1        0.2106
     14 H          13.5271   75.5598   -7.0935 H       1  UNL1        0.2105
     15 N          17.5710   72.9751   -8.1556 N.ar    1  UNL1       -0.2551
     16 C          17.1960   71.7177   -7.8631 C.ar    1  UNL1        0.3323
     17 N          17.8268   70.6614   -8.4093 N.ar    1  UNL1       -0.2743
     18 C          18.8580   70.8498   -9.2573 C.ar    1  UNL1        0.2626
     19 C          19.2671   72.1682   -9.5693 C.ar    1  UNL1        0.0795
     20 C          18.6133   73.2096   -9.0114 C.ar    1  UNL1        0.0869
     21 O          16.2676   71.5316   -7.1001 O.2     1  UNL1       -0.2464
     22 O          19.4322   69.8954   -9.7480 O.2     1  UNL1       -0.2670
     23 H          17.5399   69.7613   -8.1908 H       1  UNL1        0.1734
     24 O          17.9275   74.6824   -1.3112 O.3     1  UNL1       -0.2703
     25 P          19.5316   74.7139   -1.4346 P.3     1  UNL1        0.2208
     26 O          20.0697   75.8046   -0.5921 O.2     1  UNL1       -0.5170
     27 O          19.9476   74.9672   -2.9692 O.3     1  UNL1       -0.4371
     28 O          20.1368   73.3065   -0.9414 O.3     1  UNL1       -0.2865
     29 C          21.5589   73.4137   -1.0277 C.3     1  UNL1        0.2611
     30 C          22.0887   72.3449   -1.9853 C.3     1  UNL1        0.1582
     31 C          21.6809   70.9612   -1.4671 C.3     1  UNL1        0.1625
     32 C          22.1484   70.8245   -0.0142 C.3     1  UNL1        0.1686
     33 C          21.6114   72.0066    0.7954 C.3     1  UNL1        0.1760
     34 O          22.2947   69.9498   -2.2683 O.3     1  UNL1       -0.3801
     35 O          21.6517   69.6024    0.5347 O.3     1  UNL1       -0.3794
     36 O          22.1277   73.2274    0.2666 O.3     1  UNL1       -0.3263
     37 H          22.0116   69.0980   -1.9083 H       1  UNL1        0.2105
     38 H          21.9680   69.5571    1.4482 H       1  UNL1        0.2105
     39 C          22.3325   72.6669   -4.3876 C.2     1  UNL1        0.2231
     40 C          21.7475   72.8852   -5.7596 C.3     1  UNL1        0.0946
     41 N          21.5209   72.5565   -3.3183 N.am    1  UNL1       -0.2994
     42 O          23.5343   72.5912   -4.2460 O.2     1  UNL1       -0.2751
     43 H          20.5590   72.6173   -3.4313 H       1  UNL1        0.1496
     44 C          22.0457   71.8625    2.2554 C.3     1  UNL1        0.1693
     45 O          20.8925   71.8741    3.0992 O.3     1  UNL1       -0.3794
     46 H          21.2096   71.7815    4.0078 H       1  UNL1        0.2105
@<TRIPOS>BOND
     1    29    30    1
     2    29    28    1
     3    29    36    1
     4    30    31    1
     5    30    41    1
     6    31    32    1
     7    31    34    1
     8    32    33    1
     9    32    35    1
    10    33    44    1
    11    33    36    1
    12    44    45    1
    13    39    40    1
    14    39    41   am
    15    39    42    2
    16    41    43    1
    17    28    25    1
    18    34    37    1
    19    35    38    1
    20    45    46    1
    21    15    16   ar
    22    15    20   ar
    23    15     6    1
    24    16    17   ar
    25    16    21    2
    26    17    18   ar
    27    17    23    1
    28    18    19   ar
    29    18    22    2
    30    19    20   ar
    31     6     7    1
    32     6    11    1
    33     7     8    1
    34     7     9    1
    35     8    13    1
    36     9    10    1
    37     9    12    1
    38    10    11    1
    39    10     5    1
    40    12    14    1
    41     5     4    1
    42     4     1    1
    43     1     2    2
    44     1     3    1
    45     1    24    1
    46    24    25    1
    47    25    26    2
    48    25    27    1
@<TRIPOS>MOLECULE
UD1
 46 48 0 0 0
SMALL
GASTEIGER

@<TRIPOS>ATOM
      1 P          22.6790   71.2734   -2.5428 P.3     1  UNL1        0.2189
      2 O          23.6627   70.4952   -3.3274 O.2     1  UNL1       -0.5170
      3 O          23.2891   72.7247   -2.2052 O.3     1  UNL1       -0.4371
      4 O          22.3532   70.4969   -1.1703 O.3     1  UNL1       -0.3112
      5 C          22.6090   71.4138   -0.1053 C.3     1  UNL1        0.1811
      6 C          20.5748   72.9032    2.4582 C.3     1  UNL1        0.2383
      7 C          20.8575   74.0592    1.4664 C.3     1  UNL1        0.1895
      8 O          19.7741   74.9893    1.4433 O.3     1  UNL1       -0.3779
      9 C          20.9708   73.3080    0.1143 C.3     1  UNL1        0.1713
     10 C          21.2840   71.8545    0.5188 C.3     1  UNL1        0.1764
     11 O          21.3833   71.8195    1.9527 O.3     1  UNL1       -0.3308
     12 O          19.7365   73.3797   -0.6028 O.3     1  UNL1       -0.3794
     13 H          20.0119   75.6807    0.8101 H       1  UNL1        0.2106
     14 H          19.5668   74.3157   -0.7736 H       1  UNL1        0.2105
     15 N          20.9897   73.2682    3.8132 N.ar    1  UNL1       -0.2551
     16 C          20.0858   73.7643    4.6759 C.ar    1  UNL1        0.3323
     17 N          20.4384   74.1048    5.9297 N.ar    1  UNL1       -0.2743
     18 C          21.7149   73.9610    6.3393 C.ar    1  UNL1        0.2626
     19 C          22.6780   73.4456    5.4395 C.ar    1  UNL1        0.0795
     20 C          22.2960   73.1070    4.1894 C.ar    1  UNL1        0.0869
     21 O          18.9306   73.8997    4.3213 O.2     1  UNL1       -0.2464
     22 O          22.0358   74.2731    7.4711 O.2     1  UNL1       -0.2670
     23 H          19.7723   74.4566    6.5402 H       1  UNL1        0.1734
     24 O          21.3260   71.4443   -3.3966 O.3     1  UNL1       -0.2703
     25 P          21.6169   72.5708   -4.5081 P.3     1  UNL1        0.2208
     26 O          23.0595   72.5791   -4.8360 O.2     1  UNL1       -0.5170
     27 O          21.1891   74.0136   -3.9358 O.3     1  UNL1       -0.4371
     28 O          20.7666   72.2484   -5.8361 O.3     1  UNL1       -0.2865
     29 C          20.1218   73.4638   -6.2208 C.3     1  UNL1        0.2611
     30 C          18.7190   73.1480   -6.7429 C.3     1  UNL1        0.1582
     31 C          18.8318   72.1939   -7.9372 C.3     1  UNL1        0.1625
     32 C          19.7877   72.8072   -8.9660 C.3     1  UNL1        0.1686
     33 C          21.1111   73.1459   -8.2767 C.3     1  UNL1        0.1760
     34 O          17.5432   72.0096   -8.5262 O.3     1  UNL1       -0.3801
     35 O          20.0218   71.8701  -10.0189 O.3     1  UNL1       -0.3794
     36 O          20.8848   74.1025   -7.2421 O.3     1  UNL1       -0.3263
     37 H          17.6605   71.4041   -9.2712 H       1  UNL1        0.2105
     38 H          20.6276   72.2954  -10.6423 H       1  UNL1        0.2105
     39 C          17.9143   71.1737   -5.5645 C.2     1  UNL1        0.2231
     40 C          17.1040   70.5229   -4.4727 C.3     1  UNL1        0.0946
     41 N          17.9324   72.5154   -5.6821 N.am    1  UNL1       -0.2994
     42 O          18.5497   70.4893   -6.3378 O.2     1  UNL1       -0.2751
     43 H          17.4238   73.0632   -5.0635 H       1  UNL1        0.1496
     44 C          22.0845   73.7293   -9.3029 C.3     1  UNL1        0.1693
     45 O          23.4140   73.6785   -8.7815 O.3     1  UNL1       -0.3794
     46 H          23.9942   74.0547   -9.4572 H       1  UNL1        0.2105
@<TRIPOS>BOND
     1    29    30    1
     2    29    28    1
     3    29    36    1
     4    30    31    1
     5    30    41    1
     6    31    32    1
     7    31    34    1
     8    32    33    1
     9    32    35    1
    10    33    44    1
    11    33    36    1
    12    44    45    1
    13    39    40    1
    14    39    41   am
    15    39    42    2
    16    41    43    1
    17    28    25    1
    18    34    37    1
    19    35    38    1
    20    45    46    1
    21    15    16   ar
    22    15    20   ar
    23    15     6    1
    24    16    17   ar
    25    16    21    2
    26    17    18   ar
    27    17    23    1
    28    18    19   ar
    29    18    22    2
    30    19    20   ar
    31     6     7    1
    32     6    11    1
    33     7     8    1
    34     7     9    1
    35     8    13    1
    36     9    10    1
    37     9    12    1
    38    10    11    1
    39    10     5    1
    40    12    14    1
    41     5     4    1
    42     4     1    1
    43     1     2    2
    44     1     3    1
    45     1    24    1
    46    24    25    1
    47    25    26    2
    48    25    27    1
@<TRIPOS>MOLECULE
UD1
 46 48 0 0 0
SMALL
GASTEIGER

@<TRIPOS>ATOM
      1 P          20.3886   70.4696   -2.4872 P.3     1  UNL1        0.2189
      2 O          21.6504   69.7938   -2.8611 O.2     1  UNL1       -0.5170
      3 O          19.2817   69.3652   -2.1028 O.3     1  UNL1       -0.4371
      4 O          19.8612   71.3463   -3.7306 O.3     1  UNL1       -0.3112
      5 C          21.0022   71.9974   -4.2915 C.3     1  UNL1        0.1811
      6 C          19.5357   72.4894   -7.5372 C.3     1  UNL1        0.2383
      7 C          20.4629   73.7149   -7.3404 C.3     1  UNL1        0.1895
      8 O          20.9779   74.1724   -8.5912 O.3     1  UNL1       -0.3779
      9 C          21.5947   73.1284   -6.4571 C.3     1  UNL1        0.1713
     10 C          20.9599   71.8793   -5.8158 C.3     1  UNL1        0.1764
     11 O          19.5952   71.8130   -6.2634 O.3     1  UNL1       -0.3308
     12 O          22.7208   72.7689   -7.2604 O.3     1  UNL1       -0.3794
     13 H          21.5439   74.9330   -8.3998 H       1  UNL1        0.2106
     14 H          23.0350   73.5807   -7.6802 H       1  UNL1        0.2105
     15 N          18.1672   72.9155   -7.8320 N.ar    1  UNL1       -0.2551
     16 C          17.8148   73.1959   -9.0987 C.ar    1  UNL1        0.3323
     17 N          16.5621   73.5862   -9.3996 N.ar    1  UNL1       -0.2743
     18 C          15.6374   73.7117   -8.4264 C.ar    1  UNL1        0.2626
     19 C          15.9964   73.4256   -7.0877 C.ar    1  UNL1        0.0795
     20 C          17.2585   73.0308   -6.8147 C.ar    1  UNL1        0.0869
     21 O          18.6376   73.0873   -9.9875 O.2     1  UNL1       -0.2464
     22 O          14.5057   74.0692   -8.6966 O.2     1  UNL1       -0.2670
     23 H          16.3241   73.7797  -10.3194 H       1  UNL1        0.1734
     24 O          20.6489   71.4321   -1.2244 O.3     1  UNL1       -0.2703
     25 P          21.9259   70.8402   -0.4443 P.3     1  UNL1        0.2208
     26 O          23.0008   70.5391   -1.4152 O.2     1  UNL1       -0.5170
     27 O          21.5065   69.4905    0.3267 O.3     1  UNL1       -0.4371
     28 O          22.4543   71.9236    0.6222 O.3     1  UNL1       -0.2865
     29 C          21.3271   72.7148    1.0026 C.3     1  UNL1        0.2611
     30 C          21.6086   74.1832    0.6796 C.3     1  UNL1        0.1582
     31 C          22.8641   74.6311    1.4363 C.3     1  UNL1        0.1625
     32 C          22.6786   74.3148    2.9241 C.3     1  UNL1        0.1686
     33 C          22.3194   72.8354    3.0780 C.3     1  UNL1        0.1760
     34 O          23.0523   76.0367    1.2620 O.3     1  UNL1       -0.3801
     35 O          23.8927   74.5887    3.6259 O.3     1  UNL1       -0.3794
     36 O          21.0927   72.5642    2.4011 O.3     1  UNL1       -0.3263
     37 H          23.8508   76.2747    1.7530 H       1  UNL1        0.2105
     38 H          23.7323   74.3755    4.5562 H       1  UNL1        0.2105
     39 C          23.0744   74.3314   -1.2605 C.2     1  UNL1        0.2231
     40 C          23.2952   74.4887   -2.7433 C.3     1  UNL1        0.0946
     41 N          21.8236   74.3355   -0.7609 N.am    1  UNL1       -0.2994
     42 O          24.0232   74.2018   -0.5166 O.2     1  UNL1       -0.2751
     43 H          21.0642   74.4394   -1.3559 H       1  UNL1        0.1496
     44 C          22.1637   72.5015    4.5631 C.3     1  UNL1        0.1693
     45 O          20.9827   73.1255    5.0708 O.3     1  UNL1       -0.3794
     46 H          20.9224   72.8907    6.0067 H       1  UNL1        0.2105
@<TRIPOS>BOND
     1    29    30    1
     2    29    28    1
     3    29    36    1
     4    30    31    1
     5    30    41    1
     6    31    32    1
     7    31    34    1
     8    32    33    1
     9    32    35    1
    10    33    44    1
    11    33    36    1
    12    44    45    1
    13    39    40    1
    14    39    41   am
    15    39    42    2
    16    41    43    1
    17    28    25    1
    18    34    37    1
    19    35    38    1
    20    45    46    1
    21    15    16   ar
    22    15    20   ar
    23    15     6    1
    24    16    17   ar
    25    16    21    2
    26    17    18   ar
    27    17    23    1
    28    18    19   ar
    29    18    22    2
    30    19    20   ar
    31     6     7    1
    32     6    11    1
    33     7     8    1
    34     7     9    1
    35     8    13    1
    36     9    10    1
    37     9    12    1
    38    10    11    1
    39    10     5    1
    40    12    14    1
    41     5     4    1
    42     4     1    1
    43     1     2    2
    44     1     3    1
    45     1    24    1
    46    24    25    1
    47    25    26    2
    48    25    27    1
@<TRIPOS>MOLECULE
UD1
 46 48 0 0 0
SMALL
GASTEIGER

@<TRIPOS>ATOM
      1 P          21.1917   70.3464   -2.4409 P.3     1  UNL1        0.2189
      2 O          20.8134   69.2395   -3.3467 O.2     1  UNL1       -0.5170
      3 O          22.7693   70.6375   -2.5789 O.3     1  UNL1       -0.4371
      4 O          20.8540   69.9347   -0.9213 O.3     1  UNL1       -0.3112
      5 C          21.7534   70.6643   -0.0851 C.3     1  UNL1        0.1811
      6 C          21.1347   73.5773    1.9294 C.3     1  UNL1        0.2383
      7 C          22.4380   73.9075    1.1595 C.3     1  UNL1        0.1895
      8 O          22.5465   75.3104    0.9163 O.3     1  UNL1       -0.3779
      9 C          22.2383   73.1297   -0.1672 C.3     1  UNL1        0.1713
     10 C          21.1858   72.0594    0.1810 C.3     1  UNL1        0.1764
     11 O          20.8737   72.2020    1.5772 O.3     1  UNL1       -0.3308
     12 O          21.7544   74.0021   -1.1907 O.3     1  UNL1       -0.3794
     13 H          23.3751   75.4483    0.4368 H       1  UNL1        0.2106
     14 H          22.4291   74.6818   -1.3203 H       1  UNL1        0.2105
     15 N          21.3360   73.7113    3.3727 N.ar    1  UNL1       -0.2551
     16 C          21.9426   72.7246    4.0553 C.ar    1  UNL1        0.3323
     17 N          22.1445   72.8225    5.3826 N.ar    1  UNL1       -0.2743
     18 C          21.7299   73.9158    6.0541 C.ar    1  UNL1        0.2626
     19 C          21.0846   74.9594    5.3489 C.ar    1  UNL1        0.0795
     20 C          20.8997   74.8375    4.0169 C.ar    1  UNL1        0.0869
     21 O          22.3222   71.7324    3.4637 O.2     1  UNL1       -0.2464
     22 O          21.9077   74.0033    7.2550 O.2     1  UNL1       -0.2670
     23 H          22.5880   72.1033    5.8582 H       1  UNL1        0.1734
     24 O          20.3645   71.6690   -2.8349 O.3     1  UNL1       -0.2703
     25 P          20.9789   72.2056   -4.2219 P.3     1  UNL1        0.2208
     26 O          22.3776   71.7418   -4.3539 O.2     1  UNL1       -0.5170
     27 O          20.9443   73.8152   -4.2379 O.3     1  UNL1       -0.4371
     28 O          20.1076   71.6394   -5.4510 O.3     1  UNL1       -0.2865
     29 C          19.1774   72.6639   -5.8064 C.3     1  UNL1        0.2611
     30 C          17.7530   72.1256   -5.6602 C.3     1  UNL1        0.1582
     31 C          17.5838   70.9024   -6.5684 C.3     1  UNL1        0.1625
     32 C          17.9913   71.2901   -7.9938 C.3     1  UNL1        0.1686
     33 C          19.3992   71.8887   -7.9642 C.3     1  UNL1        0.1760
     34 O          16.2186   70.4813   -6.5549 O.3     1  UNL1       -0.3801
     35 O          17.9815   70.1288   -8.8262 O.3     1  UNL1       -0.3794
     36 O          19.4063   73.0645   -7.1556 O.3     1  UNL1       -0.3263
     37 H          16.1579   69.7116   -7.1373 H       1  UNL1        0.2105
     38 H          18.2441   70.4173   -9.7119 H       1  UNL1        0.2105
     39 C          16.7946   72.5398   -3.4593 C.2     1  UNL1        0.2231
     40 C          16.5510   72.1421   -2.0259 C.3     1  UNL1        0.0946
     41 N          17.5157   71.7394   -4.2678 N.am    1  UNL1       -0.2994
     42 O          16.3419   73.5810   -3.8849 O.2     1  UNL1       -0.2751
     43 H          17.8783   70.9062   -3.9274 H       1  UNL1        0.1496
     44 C          19.8286   72.2495   -9.3878 C.3     1  UNL1        0.1693
     45 O          18.6738   72.3464  -10.2240 O.3     1  UNL1       -0.3794
     46 H          18.9879   72.5743  -11.1095 H       1  UNL1        0.2105
@<TRIPOS>BOND
     1    29    30    1
     2    29    28    1
     3    29    36    1
     4    30    31    1
     5    30    41    1
     6    31    32    1
     7    31    34    1
     8    32    33    1
     9    32    35    1
    10    33    44    1
    11    33    36    1
    12    44    45    1
    13    39    40    1
    14    39    41   am
    15    39    42    2
    16    41    43    1
    17    28    25    1
    18    34    37    1
    19    35    38    1
    20    45    46    1
    21    15    16   ar
    22    15    20   ar
    23    15     6    1
    24    16    17   ar
    25    16    21    2
    26    17    18   ar
    27    17    23    1
    28    18    19   ar
    29    18    22    2
    30    19    20   ar
    31     6     7    1
    32     6    11    1
    33     7     8    1
    34     7     9    1
    35     8    13    1
    36     9    10    1
    37     9    12    1
    38    10    11    1
    39    10     5    1
    40    12    14    1
    41     5     4    1
    42     4     1    1
    43     1     2    2
    44     1     3    1
    45     1    24    1
    46    24    25    1
    47    25    26    2
    48    25    27    1
@<TRIPOS>MOLECULE
UD1
 46 48 0 0 0
SMALL
GASTEIGER

@<TRIPOS>ATOM
      1 P          18.7226   69.8988   -3.1987 P.3     1  UNL1        0.2189
      2 O          19.6784   69.8595   -4.3273 O.2     1  UNL1       -0.5170
      3 O          18.4992   68.4081   -2.6325 O.3     1  UNL1       -0.4371
      4 O          17.3161   70.4947   -3.7079 O.3     1  UNL1       -0.3112
      5 C          17.1501   71.7636   -3.0733 C.3     1  UNL1        0.1811
      6 C          17.4427   73.0390   -6.4222 C.3     1  UNL1        0.2383
      7 C          15.9285   72.7653   -6.2420 C.3     1  UNL1        0.1895
      8 O          15.1486   73.6763   -7.0171 O.3     1  UNL1       -0.3779
      9 C          15.7300   73.0188   -4.7249 C.3     1  UNL1        0.1713
     10 C          17.1442   72.8675   -4.1319 C.3     1  UNL1        0.1764
     11 O          18.0270   72.5151   -5.2107 O.3     1  UNL1       -0.3308
     12 O          15.2245   74.3366   -4.4998 O.3     1  UNL1       -0.3794
     13 H          14.2204   73.4532   -6.8616 H       1  UNL1        0.2106
     14 H          14.3677   74.3867   -4.9442 H       1  UNL1        0.2105
     15 N          17.9625   72.3324   -7.5934 N.ar    1  UNL1       -0.2551
     16 C          17.7337   71.0149   -7.7326 C.ar    1  UNL1        0.3323
     17 N          18.1964   70.3402   -8.8016 N.ar    1  UNL1       -0.2743
     18 C          18.9095   70.9783   -9.7514 C.ar    1  UNL1        0.2626
     19 C          19.1628   72.3640   -9.6145 C.ar    1  UNL1        0.0795
     20 C          18.6824   73.0174   -8.5349 C.ar    1  UNL1        0.0869
     21 O          17.0921   70.4254   -6.8844 O.2     1  UNL1       -0.2464
     22 O          19.3324   70.3683  -10.7160 O.2     1  UNL1       -0.2670
     23 H          18.0179   69.3911   -8.8882 H       1  UNL1        0.1734
     24 O          19.3104   70.8354   -2.0299 O.3     1  UNL1       -0.2703
     25 P          20.8563   70.4298   -1.8423 P.3     1  UNL1        0.2208
     26 O          21.1855   69.3085   -2.7497 O.2     1  UNL1       -0.5170
     27 O          21.1123   69.9787   -0.3181 O.3     1  UNL1       -0.4371
     28 O          21.7901   71.6936   -2.1904 O.3     1  UNL1       -0.2865
     29 C          21.0158   72.8655   -1.9293 C.3     1  UNL1        0.2611
     30 C          21.3264   73.9228   -2.9902 C.3     1  UNL1        0.1582
     31 C          22.8246   74.2448   -2.9533 C.3     1  UNL1        0.1625
     32 C          23.2087   74.6269   -1.5199 C.3     1  UNL1        0.1686
     33 C          22.7586   73.5148   -0.5702 C.3     1  UNL1        0.1760
     34 O          23.1018   75.3355   -3.8337 O.3     1  UNL1       -0.3801
     35 O          24.6256   74.7884   -1.4317 O.3     1  UNL1       -0.3794
     36 O          21.3405   73.3695   -0.6355 O.3     1  UNL1       -0.3263
     37 H          24.0527   75.5036   -3.7795 H       1  UNL1        0.2105
     38 H          24.8234   75.0272   -0.5150 H       1  UNL1        0.2105
     39 C          21.9100   72.8552   -5.1007 C.2     1  UNL1        0.2231
     40 C          21.5401   72.3270   -6.4632 C.3     1  UNL1        0.0946
     41 N          20.9675   73.4091   -4.3137 N.am    1  UNL1       -0.2994
     42 O          23.0564   72.7822   -4.7129 O.2     1  UNL1       -0.2751
     43 H          20.0500   73.4679   -4.6239 H       1  UNL1        0.1496
     44 C          23.1665   73.8717    0.8607 C.3     1  UNL1        0.1693
     45 O          22.2565   74.8388    1.3887 O.3     1  UNL1       -0.3794
     46 H          22.5488   75.0358    2.2889 H       1  UNL1        0.2105
@<TRIPOS>BOND
     1    29    30    1
     2    29    28    1
     3    29    36    1
     4    30    31    1
     5    30    41    1
     6    31    32    1
     7    31    34    1
     8    32    33    1
     9    32    35    1
    10    33    44    1
    11    33    36    1
    12    44    45    1
    13    39    40    1
    14    39    41   am
    15    39    42    2
    16    41    43    1
    17    28    25    1
    18    34    37    1
    19    35    38    1
    20    45    46    1
    21    15    16   ar
    22    15    20   ar
    23    15     6    1
    24    16    17   ar
    25    16    21    2
    26    17    18   ar
    27    17    23    1
    28    18    19   ar
    29    18    22    2
    30    19    20   ar
    31     6     7    1
    32     6    11    1
    33     7     8    1
    34     7     9    1
    35     8    13    1
    36     9    10    1
    37     9    12    1
    38    10    11    1
    39    10     5    1
    40    12    14    1
    41     5     4    1
    42     4     1    1
    43     1     2    2
    44     1     3    1
    45     1    24    1
    46    24    25    1
    47    25    26    2
    48    25    27    1
@<TRIPOS>MOLECULE
UD1
 46 48 0 0 0
SMALL
GASTEIGER

@<TRIPOS>ATOM
      1 P          20.2361   70.1978   -2.8769 P.3     1  UNL1        0.2189
      2 O          19.0468   69.7226   -2.1361 O.2     1  UNL1       -0.5170
      3 O          21.4724   69.2037   -2.6016 O.3     1  UNL1       -0.4371
      4 O          20.6200   71.6805   -2.3800 O.3     1  UNL1       -0.3112
      5 C          20.5250   71.6770   -0.9548 C.3     1  UNL1        0.1811
      6 C          22.8693   72.2250    1.7157 C.3     1  UNL1        0.2383
      7 C          22.6115   70.6974    1.7328 C.3     1  UNL1        0.1895
      8 O          23.7655   69.9893    2.1868 O.3     1  UNL1       -0.3779
      9 C          22.3312   70.3977    0.2372 C.3     1  UNL1        0.1713
     10 C          21.9267   71.7641   -0.3490 C.3     1  UNL1        0.1764
     11 O          21.9347   72.7140    0.7303 O.3     1  UNL1       -0.3308
     12 O          23.5085   69.9003   -0.4025 O.3     1  UNL1       -0.3794
     13 H          23.5400   69.0489    2.1745 H       1  UNL1        0.2106
     14 H          23.7442   69.0777    0.0468 H       1  UNL1        0.2105
     15 N          22.5921   72.8132    3.0266 N.ar    1  UNL1       -0.2551
     16 C          21.3696   72.6826    3.5705 C.ar    1  UNL1        0.3323
     17 N          21.0875   73.2100    4.7765 N.ar    1  UNL1       -0.2743
     18 C          22.0312   73.8902    5.4582 C.ar    1  UNL1        0.2626
     19 C          23.3207   74.0404    4.8947 C.ar    1  UNL1        0.0795
     20 C          23.5781   73.4967    3.6858 C.ar    1  UNL1        0.0869
     21 O          20.5079   72.0718    2.9679 O.2     1  UNL1       -0.2464
     22 O          21.7759   74.3715    6.5466 O.2     1  UNL1       -0.2670
     23 H          20.2017   73.1020    5.1559 H       1  UNL1        0.1734
     24 O          19.9105   70.2275   -4.4523 O.3     1  UNL1       -0.2703
     25 P          18.6250   71.1762   -4.6436 P.3     1  UNL1        0.2208
     26 O          18.6282   72.2270   -3.6021 O.2     1  UNL1       -0.5170
     27 O          17.2833   70.2960   -4.5127 O.3     1  UNL1       -0.4371
     28 O          18.6748   71.8628   -6.0985 O.3     1  UNL1       -0.2865
     29 C          19.9520   71.5538   -6.6591 C.3     1  UNL1        0.2611
     30 C          20.5896   72.8350   -7.1996 C.3     1  UNL1        0.1582
     31 C          19.6665   73.4454   -8.2602 C.3     1  UNL1        0.1625
     32 C          19.3564   72.3767   -9.3137 C.3     1  UNL1        0.1686
     33 C          18.8089   71.1311   -8.6138 C.3     1  UNL1        0.1760
     34 O          20.3168   74.5574   -8.8783 O.3     1  UNL1       -0.3801
     35 O          18.3823   72.8783  -10.2309 O.3     1  UNL1       -0.3794
     36 O          19.7899   70.6116   -7.7170 O.3     1  UNL1       -0.3263
     37 H          19.7021   74.9100   -9.5364 H       1  UNL1        0.2105
     38 H          18.2162   72.1752  -10.8748 H       1  UNL1        0.2105
     39 C          21.9163   73.7768   -5.3866 C.2     1  UNL1        0.2231
     40 C          22.1082   74.7586   -4.2589 C.3     1  UNL1        0.0946
     41 N          20.7767   73.7889   -6.1044 N.am    1  UNL1       -0.2994
     42 O          22.7879   72.9752   -5.6474 O.2     1  UNL1       -0.2751
     43 H          20.0790   74.4301   -5.8957 H       1  UNL1        0.1496
     44 C          18.4654   70.0691   -9.6604 C.3     1  UNL1        0.1693
     45 O          19.2504   70.2855  -10.8347 O.3     1  UNL1       -0.3794
     46 H          19.0036   69.5972  -11.4671 H       1  UNL1        0.2105
@<TRIPOS>BOND
     1    29    30    1
     2    29    28    1
     3    29    36    1
     4    30    31    1
     5    30    41    1
     6    31    32    1
     7    31    34    1
     8    32    33    1
     9    32    35    1
    10    33    44    1
    11    33    36    1
    12    44    45    1
    13    39    40    1
    14    39    41   am
    15    39    42    2
    16    41    43    1
    17    28    25    1
    18    34    37    1
    19    35    38    1
    20    45    46    1
    21    15    16   ar
    22    15    20   ar
    23    15     6    1
    24    16    17   ar
    25    16    21    2
    26    17    18   ar
    27    17    23    1
    28    18    19   ar
    29    18    22    2
    30    19    20   ar
    31     6     7    1
    32     6    11    1
    33     7     8    1
    34     7     9    1
    35     8    13    1
    36     9    10    1
    37     9    12    1
    38    10    11    1
    39    10     5    1
    40    12    14    1
    41     5     4    1
    42     4     1    1
    43     1     2    2
    44     1     3    1
    45     1    24    1
    46    24    25    1
    47    25    26    2
    48    25    27    1
@<TRIPOS>MOLECULE
UD1
 46 48 0 0 0
SMALL
GASTEIGER

@<TRIPOS>ATOM
      1 P          22.0335   71.5768   -2.9765 P.3     1  UNL1        0.2189
      2 O          22.2371   70.2634   -2.3268 O.2     1  UNL1       -0.5170
      3 O          23.4495   72.1482   -3.4875 O.3     1  UNL1       -0.4371
      4 O          21.3918   72.6054   -1.9168 O.3     1  UNL1       -0.3112
      5 C          22.4794   73.2933   -1.2970 C.3     1  UNL1        0.1811
      6 C          22.6892   73.3096    2.2923 C.3     1  UNL1        0.2383
      7 C          21.2704   72.7663    1.9888 C.3     1  UNL1        0.1895
      8 O          20.8454   71.8533    3.0012 O.3     1  UNL1       -0.3779
      9 C          21.4839   72.0347    0.6381 C.3     1  UNL1        0.1713
     10 C          22.7681   72.6676    0.0684 C.3     1  UNL1        0.1764
     11 O          23.1924   73.6844    0.9923 O.3     1  UNL1       -0.3308
     12 O          21.6614   70.6326    0.8511 O.3     1  UNL1       -0.3794
     13 H          19.9595   71.5537    2.7543 H       1  UNL1        0.2106
     14 H          20.8495   70.3077    1.2626 H       1  UNL1        0.2105
     15 N          22.6214   74.4747    3.1751 N.ar    1  UNL1       -0.2551
     16 C          23.6117   74.7024    4.0552 C.ar    1  UNL1        0.3323
     17 N          23.5776   75.7683    4.8767 N.ar    1  UNL1       -0.2743
     18 C          22.5373   76.6251    4.8352 C.ar    1  UNL1        0.2626
     19 C          21.4850   76.3940    3.9176 C.ar    1  UNL1        0.0795
     20 C          21.5472   75.3201    3.1014 C.ar    1  UNL1        0.0869
     21 O          24.5568   73.9387    4.1045 O.2     1  UNL1       -0.2464
     22 O          22.5031   77.5865    5.5808 O.2     1  UNL1       -0.2670
     23 H          24.3029   75.9197    5.5021 H       1  UNL1        0.1734
     24 O          21.0384   71.4073   -4.2295 O.3     1  UNL1       -0.2703
     25 P          21.2265   72.7120   -5.1524 P.3     1  UNL1        0.2208
     26 O          22.5565   72.6711   -5.7990 O.2     1  UNL1       -0.5170
     27 O          21.1137   74.0350   -4.2419 O.3     1  UNL1       -0.4371
     28 O          20.0810   72.7410   -6.2827 O.3     1  UNL1       -0.2865
     29 C          20.0290   71.4324   -6.8538 C.3     1  UNL1        0.2611
     30 C          20.0723   71.5449   -8.3788 C.3     1  UNL1        0.1582
     31 C          18.8845   72.3898   -8.8530 C.3     1  UNL1        0.1625
     32 C          17.5963   71.7898   -8.2797 C.3     1  UNL1        0.1686
     33 C          17.7387   71.6618   -6.7616 C.3     1  UNL1        0.1760
     34 O          18.8282   72.3780  -10.2806 O.3     1  UNL1       -0.3801
     35 O          16.4931   72.6441   -8.5873 O.3     1  UNL1       -0.3794
     36 O          18.8228   70.7872   -6.4511 O.3     1  UNL1       -0.3263
     37 H          18.0689   72.9204  -10.5347 H       1  UNL1        0.2105
     38 H          15.7047   72.2302   -8.2082 H       1  UNL1        0.2105
     39 C          21.3632   73.5145   -9.0019 C.2     1  UNL1        0.2231
     40 C          22.6520   74.1732   -9.4231 C.3     1  UNL1        0.0946
     41 N          21.3242   72.1853   -8.7875 N.am    1  UNL1       -0.2994
     42 O          20.3609   74.1811   -8.8566 O.2     1  UNL1       -0.2751
     43 H          22.1261   71.6516   -8.9039 H       1  UNL1        0.1496
     44 C          16.4447   71.0935   -6.1753 C.3     1  UNL1        0.1693
     45 O          16.2987   69.7294   -6.5755 O.3     1  UNL1       -0.3794
     46 H          15.4733   69.4104   -6.1863 H       1  UNL1        0.2105
@<TRIPOS>BOND
     1    29    30    1
     2    29    28    1
     3    29    36    1
     4    30    31    1
     5    30    41    1
     6    31    32    1
     7    31    34    1
     8    32    33    1
     9    32    35    1
    10    33    44    1
    11    33    36    1
    12    44    45    1
    13    39    40    1
    14    39    41   am
    15    39    42    2
    16    41    43    1
    17    28    25    1
    18    34    37    1
    19    35    38    1
    20    45    46    1
    21    15    16   ar
    22    15    20   ar
    23    15     6    1
    24    16    17   ar
    25    16    21    2
    26    17    18   ar
    27    17    23    1
    28    18    19   ar
    29    18    22    2
    30    19    20   ar
    31     6     7    1
    32     6    11    1
    33     7     8    1
    34     7     9    1
    35     8    13    1
    36     9    10    1
    37     9    12    1
    38    10    11    1
    39    10     5    1
    40    12    14    1
    41     5     4    1
    42     4     1    1
    43     1     2    2
    44     1     3    1
    45     1    24    1
    46    24    25    1
    47    25    26    2
    48    25    27    1
@<TRIPOS>MOLECULE
UD1
 46 48 0 0 0
SMALL
GASTEIGER

@<TRIPOS>ATOM
      1 P          21.9468   72.8496    1.1414 P.3     1  UNL1        0.2189
      2 O          23.1272   73.1025    0.2860 O.2     1  UNL1       -0.5170
      3 O          20.6078   73.2424    0.3380 O.3     1  UNL1       -0.4371
      4 O          22.0515   73.7427    2.4771 O.3     1  UNL1       -0.3112
      5 C          22.5936   72.9013    3.4961 C.3     1  UNL1        0.1811
      6 C          21.6527   74.2342    6.7001 C.3     1  UNL1        0.2383
      7 C          20.8252   75.0555    5.6798 C.3     1  UNL1        0.1895
      8 O          19.5798   75.4666    6.2447 O.3     1  UNL1       -0.3779
      9 C          20.6033   74.0287    4.5389 C.3     1  UNL1        0.1713
     10 C          21.7205   72.9884    4.7489 C.3     1  UNL1        0.1764
     11 O          22.5114   73.4271    5.8666 O.3     1  UNL1       -0.3308
     12 O          19.3155   73.4201    4.6570 O.3     1  UNL1       -0.3794
     13 H          19.1156   75.9711    5.5624 H       1  UNL1        0.2106
     14 H          18.6633   74.1288    4.5768 H       1  UNL1        0.2105
     15 N          22.4459   75.1171    7.5561 N.ar    1  UNL1       -0.2551
     16 C          23.3624   75.9321    7.0054 C.ar    1  UNL1        0.3323
     17 N          24.1034   76.7576    7.7681 N.ar    1  UNL1       -0.2743
     18 C          23.9429   76.7729    9.1068 C.ar    1  UNL1        0.2626
     19 C          22.9859   75.9157    9.7002 C.ar    1  UNL1        0.0795
     20 C          22.2523   75.1017    8.9112 C.ar    1  UNL1        0.0869
     21 O          23.5187   75.9298    5.7995 O.2     1  UNL1       -0.2464
     22 O          24.6157   77.5153    9.7978 O.2     1  UNL1       -0.2670
     23 H          24.7565   77.3421    7.3536 H       1  UNL1        0.1734
     24 O          21.8969   71.2917    1.5403 O.3     1  UNL1       -0.2703
     25 P          22.1421   70.4571    0.1865 P.3     1  UNL1        0.2208
     26 O          21.6383   69.0769    0.3600 O.2     1  UNL1       -0.5170
     27 O          23.7179   70.4151   -0.1410 O.3     1  UNL1       -0.4371
     28 O          21.3613   71.1643   -1.0303 O.3     1  UNL1       -0.2865
     29 C          22.0595   70.8182   -2.2278 C.3     1  UNL1        0.2611
     30 C          22.0407   72.0105   -3.1859 C.3     1  UNL1        0.1582
     31 C          20.5861   72.3817   -3.4957 C.3     1  UNL1        0.1625
     32 C          19.8572   71.1306   -3.9973 C.3     1  UNL1        0.1686
     33 C          20.0382   70.0054   -2.9762 C.3     1  UNL1        0.1760
     34 O          20.5545   73.3945   -4.5030 O.3     1  UNL1       -0.3801
     35 O          18.4661   71.4179   -4.1524 O.3     1  UNL1       -0.3794
     36 O          21.4248   69.6972   -2.8392 O.3     1  UNL1       -0.3263
     37 H          19.6231   73.5973   -4.6662 H       1  UNL1        0.2105
     38 H          18.0462   70.6052   -4.4681 H       1  UNL1        0.2105
     39 C          23.8078   73.6866   -3.1409 C.2     1  UNL1        0.2231
     40 C          24.5028   74.8600   -2.4986 C.3     1  UNL1        0.0946
     41 N          22.7159   73.1506   -2.5625 N.am    1  UNL1       -0.2994
     42 O          24.2322   73.2245   -4.1785 O.2     1  UNL1       -0.2751
     43 H          22.3762   73.5201   -1.7321 H       1  UNL1        0.1496
     44 C          19.2864   68.7607   -3.4523 C.3     1  UNL1        0.1693
     45 O          18.2682   68.4278   -2.5065 O.3     1  UNL1       -0.3794
     46 H          17.8201   67.6402   -2.8433 H       1  UNL1        0.2105
@<TRIPOS>BOND
     1    29    30    1
     2    29    28    1
     3    29    36    1
     4    30    31    1
     5    30    41    1
     6    31    32    1
     7    31    34    1
     8    32    33    1
     9    32    35    1
    10    33    44    1
    11    33    36    1
    12    44    45    1
    13    39    40    1
    14    39    41   am
    15    39    42    2
    16    41    43    1
    17    28    25    1
    18    34    37    1
    19    35    38    1
    20    45    46    1
    21    15    16   ar
    22    15    20   ar
    23    15     6    1
    24    16    17   ar
    25    16    21    2
    26    17    18   ar
    27    17    23    1
    28    18    19   ar
    29    18    22    2
    30    19    20   ar
    31     6     7    1
    32     6    11    1
    33     7     8    1
    34     7     9    1
    35     8    13    1
    36     9    10    1
    37     9    12    1
    38    10    11    1
    39    10     5    1
    40    12    14    1
    41     5     4    1
    42     4     1    1
    43     1     2    2
    44     1     3    1
    45     1    24    1
    46    24    25    1
    47    25    26    2
    48    25    27    1
@<TRIPOS>MOLECULE
UD1
 46 48 0 0 0
SMALL
GASTEIGER

@<TRIPOS>ATOM
      1 P          21.6512   73.2341   -8.1396 P.3     1  UNL1        0.2189
      2 O          22.6982   72.8621   -7.1628 O.2     1  UNL1       -0.5170
      3 O          20.6528   74.3075   -7.4735 O.3     1  UNL1       -0.4371
      4 O          20.8210   71.9206   -8.5619 O.3     1  UNL1       -0.3112
      5 C          19.5115   72.3584   -8.9276 C.3     1  UNL1        0.1811
      6 C          18.0546   70.5959   -6.1530 C.3     1  UNL1        0.2383
      7 C          17.3314   71.9660   -6.1654 C.3     1  UNL1        0.1895
      8 O          15.9972   71.8442   -5.6711 O.3     1  UNL1       -0.3779
      9 C          17.3320   72.3208   -7.6751 C.3     1  UNL1        0.1713
     10 C          18.4679   71.4604   -8.2615 C.3     1  UNL1        0.1764
     11 O          19.0674   70.7396   -7.1714 O.3     1  UNL1       -0.3308
     12 O          16.0783   71.9787   -8.2700 O.3     1  UNL1       -0.3794
     13 H          15.6044   72.7274   -5.7045 H       1  UNL1        0.2106
     14 H          15.4033   72.5050   -7.8211 H       1  UNL1        0.2105
     15 N          18.6669   70.3437   -4.8480 N.ar    1  UNL1       -0.2551
     16 C          19.6731   71.1267   -4.4216 C.ar    1  UNL1        0.3323
     17 N          20.2523   70.9202   -3.2240 N.ar    1  UNL1       -0.2743
     18 C          19.8352   69.9117   -2.4323 C.ar    1  UNL1        0.2626
     19 C          18.7809   69.0760   -2.8715 C.ar    1  UNL1        0.0795
     20 C          18.2141   69.3088   -4.0748 C.ar    1  UNL1        0.0869
     21 O          20.0604   72.0404   -5.1243 O.2     1  UNL1       -0.2464
     22 O          20.3614   69.7212   -1.3515 O.2     1  UNL1       -0.2670
     23 H          20.9737   71.4978   -2.9303 H       1  UNL1        0.1734
     24 O          22.3387   73.8769   -9.4446 O.3     1  UNL1       -0.2703
     25 P          22.7916   75.3682   -9.0446 P.3     1  UNL1        0.2208
     26 O          23.6479   75.3170   -7.8393 O.2     1  UNL1       -0.5170
     27 O          21.4878   76.2618   -8.7381 O.3     1  UNL1       -0.4371
     28 O          23.6162   76.0245  -10.2612 O.3     1  UNL1       -0.2865
     29 C          24.6648   75.1119  -10.5910 C.3     1  UNL1        0.2611
     30 C          26.0030   75.8529  -10.5743 C.3     1  UNL1        0.1582
     31 C          25.9506   77.0049  -11.5841 C.3     1  UNL1        0.1625
     32 C          25.5333   76.4431  -12.9474 C.3     1  UNL1        0.1686
     33 C          24.2288   75.6600  -12.7855 C.3     1  UNL1        0.1760
     34 O          27.2405   77.6108  -11.6867 O.3     1  UNL1       -0.3801
     35 O          25.3359   77.5184  -13.8673 O.3     1  UNL1       -0.3794
     36 O          24.4297   74.5686  -11.8883 O.3     1  UNL1       -0.3263
     37 H          27.1618   78.3283  -12.3303 H       1  UNL1        0.2105
     38 H          25.0742   77.1211  -14.7100 H       1  UNL1        0.2105
     39 C          27.1971   75.8333   -8.4511 C.2     1  UNL1        0.2231
     40 C          27.4513   76.3829   -7.0707 C.3     1  UNL1        0.0946
     41 N          26.2506   76.3868   -9.2334 N.am    1  UNL1       -0.2994
     42 O          27.8443   74.8920   -8.8576 O.2     1  UNL1       -0.2751
     43 H          25.7324   77.1400   -8.9083 H       1  UNL1        0.1496
     44 C          23.7860   75.1219  -14.1477 C.3     1  UNL1        0.1693
     45 O          22.7910   75.9855  -14.7009 O.3     1  UNL1       -0.3794
     46 H          22.5399   75.6113  -15.5563 H       1  UNL1        0.2105
@<TRIPOS>BOND
     1    29    30    1
     2    29    28    1
     3    29    36    1
     4    30    31    1
     5    30    41    1
     6    31    32    1
     7    31    34    1
     8    32    33    1
     9    32    35    1
    10    33    44    1
    11    33    36    1
    12    44    45    1
    13    39    40    1
    14    39    41   am
    15    39    42    2
    16    41    43    1
    17    28    25    1
    18    34    37    1
    19    35    38    1
    20    45    46    1
    21    15    16   ar
    22    15    20   ar
    23    15     6    1
    24    16    17   ar
    25    16    21    2
    26    17    18   ar
    27    17    23    1
    28    18    19   ar
    29    18    22    2
    30    19    20   ar
    31     6     7    1
    32     6    11    1
    33     7     8    1
    34     7     9    1
    35     8    13    1
    36     9    10    1
    37     9    12    1
    38    10    11    1
    39    10     5    1
    40    12    14    1
    41     5     4    1
    42     4     1    1
    43     1     2    2
    44     1     3    1
    45     1    24    1
    46    24    25    1
    47    25    26    2
    48    25    27    1
@<TRIPOS>MOLECULE
UD1
 46 48 0 0 0
SMALL
GASTEIGER

@<TRIPOS>ATOM
      1 P          17.8091   74.4354   -3.0319 P.3     1  UNL1        0.2189
      2 O          17.5420   75.7248   -3.7064 O.2     1  UNL1       -0.5170
      3 O          19.2212   73.8484   -3.5358 O.3     1  UNL1       -0.4371
      4 O          16.6368   73.3908   -3.3888 O.3     1  UNL1       -0.3112
      5 C          16.7144   72.3373   -2.4274 C.3     1  UNL1        0.1811
      6 C          17.7734   70.2824   -5.1811 C.3     1  UNL1        0.2383
      7 C          19.0102   70.3522   -4.2507 C.3     1  UNL1        0.1895
      8 O          19.7867   69.1572   -4.3423 O.3     1  UNL1       -0.3779
      9 C          18.3571   70.4818   -2.8501 C.3     1  UNL1        0.1713
     10 C          16.9384   71.0056   -3.1455 C.3     1  UNL1        0.1764
     11 O          16.8374   71.1939   -4.5674 O.3     1  UNL1       -0.3308
     12 O          18.3027   69.2083   -2.2036 O.3     1  UNL1       -0.3794
     13 H          20.5378   69.2646   -3.7424 H       1  UNL1        0.2106
     14 H          19.2156   68.9080   -2.1010 H       1  UNL1        0.2105
     15 N          18.1148   70.7260   -6.5332 N.ar    1  UNL1       -0.2551
     16 C          17.2248   70.5735   -7.5291 C.ar    1  UNL1        0.3323
     17 N          17.5103   70.9759   -8.7816 N.ar    1  UNL1       -0.2743
     18 C          18.7058   71.5338   -9.0601 C.ar    1  UNL1        0.2626
     19 C          19.6544   71.6949   -8.0223 C.ar    1  UNL1        0.0795
     20 C          19.3399   71.2873   -6.7740 C.ar    1  UNL1        0.0869
     21 O          16.1423   70.0720   -7.2937 O.2     1  UNL1       -0.2464
     22 O          18.9669   71.8937  -10.1931 O.2     1  UNL1       -0.2670
     23 H          16.8546   70.8625   -9.4869 H       1  UNL1        0.1734
     24 O          17.8587   74.6628   -1.4398 O.3     1  UNL1       -0.2703
     25 P          19.4048   74.8772   -1.0488 P.3     1  UNL1        0.2208
     26 O          19.4921   75.6131    0.2317 O.2     1  UNL1       -0.5170
     27 O          20.1389   75.7241   -2.2047 O.3     1  UNL1       -0.4371
     28 O          20.1243   73.4457   -0.8952 O.3     1  UNL1       -0.2865
     29 C          21.5311   73.6913   -0.8539 C.3     1  UNL1        0.2611
     30 C          22.2478   72.6730   -1.7425 C.3     1  UNL1        0.1582
     31 C          21.9303   71.2595   -1.2417 C.3     1  UNL1        0.1625
     32 C          22.2736   71.1793    0.2496 C.3     1  UNL1        0.1686
     33 C          21.5524   72.3086    0.9884 C.3     1  UNL1        0.1760
     34 O          22.7102   70.3078   -1.9679 O.3     1  UNL1       -0.3801
     35 O          21.8494   69.9182    0.7704 O.3     1  UNL1       -0.3794
     36 O          21.9941   73.5704    0.4894 O.3     1  UNL1       -0.3263
     37 H          22.4792   69.4348   -1.6216 H       1  UNL1        0.2105
     38 H          22.0834   69.9103    1.7094 H       1  UNL1        0.2105
     39 C          22.6744   72.7979   -4.1376 C.2     1  UNL1        0.2231
     40 C          22.1995   72.9486   -5.5603 C.3     1  UNL1        0.0946
     41 N          21.7868   72.8188   -3.1247 N.am    1  UNL1       -0.2994
     42 O          23.8561   72.6586   -3.9045 O.2     1  UNL1       -0.2751
     43 H          20.8411   72.9306   -3.3110 H       1  UNL1        0.1496
     44 C          21.8628   72.2177    2.4839 C.3     1  UNL1        0.1693
     45 O          20.7026   71.7654    3.1850 O.3     1  UNL1       -0.3794
     46 H          20.9404   71.7225    4.1211 H       1  UNL1        0.2105
@<TRIPOS>BOND
     1    29    30    1
     2    29    28    1
     3    29    36    1
     4    30    31    1
     5    30    41    1
     6    31    32    1
     7    31    34    1
     8    32    33    1
     9    32    35    1
    10    33    44    1
    11    33    36    1
    12    44    45    1
    13    39    40    1
    14    39    41   am
    15    39    42    2
    16    41    43    1
    17    28    25    1
    18    34    37    1
    19    35    38    1
    20    45    46    1
    21    15    16   ar
    22    15    20   ar
    23    15     6    1
    24    16    17   ar
    25    16    21    2
    26    17    18   ar
    27    17    23    1
    28    18    19   ar
    29    18    22    2
    30    19    20   ar
    31     6     7    1
    32     6    11    1
    33     7     8    1
    34     7     9    1
    35     8    13    1
    36     9    10    1
    37     9    12    1
    38    10    11    1
    39    10     5    1
    40    12    14    1
    41     5     4    1
    42     4     1    1
    43     1     2    2
    44     1     3    1
    45     1    24    1
    46    24    25    1
    47    25    26    2
    48    25    27    1
@<TRIPOS>MOLECULE
UD1
 46 48 0 0 0
SMALL
GASTEIGER

@<TRIPOS>ATOM
      1 P          22.6831   71.8803   -3.2203 P.3     1  UNL1        0.2189
      2 O          23.3889   70.5802   -3.2380 O.2     1  UNL1       -0.5170
      3 O          23.7490   73.0724   -3.4086 O.3     1  UNL1       -0.4371
      4 O          21.9234   72.0587   -1.8118 O.3     1  UNL1       -0.3112
      5 C          22.6331   73.0612   -1.0827 C.3     1  UNL1        0.1811
      6 C          22.5625   73.4410    2.4919 C.3     1  UNL1        0.2383
      7 C          21.2023   72.7859    2.1442 C.3     1  UNL1        0.1895
      8 O          20.7488   71.9523    3.2113 O.3     1  UNL1       -0.3779
      9 C          21.5584   71.9400    0.8941 C.3     1  UNL1        0.1713
     10 C          22.8477   72.5906    0.3566 C.3     1  UNL1        0.1764
     11 O          23.1445   73.7166    1.2001 O.3     1  UNL1       -0.3308
     12 O          21.7927   70.5788    1.2613 O.3     1  UNL1       -0.3794
     13 H          19.9019   71.5770    2.9331 H       1  UNL1        0.2106
     14 H          20.9697   70.2472    1.6443 H       1  UNL1        0.2105
     15 N          22.3648   74.6807    3.2440 N.ar    1  UNL1       -0.2551
     16 C          23.1810   74.9743    4.2711 C.ar    1  UNL1        0.3323
     17 N          23.0250   76.1093    4.9779 N.ar    1  UNL1       -0.2743
     18 C          22.0345   76.9708    4.6700 C.ar    1  UNL1        0.2626
     19 C          21.1643   76.6712    3.5950 C.ar    1  UNL1        0.0795
     20 C          21.3467   75.5283    2.8993 C.ar    1  UNL1        0.0869
     21 O          24.0790   74.2073    4.5609 O.2     1  UNL1       -0.2464
     22 O          21.8896   77.9949    5.3115 O.2     1  UNL1       -0.2670
     23 H          23.6259   76.3074    5.7126 H       1  UNL1        0.1734
     24 O          21.6097   71.9247   -4.4181 O.3     1  UNL1       -0.2703
     25 P          20.3047   71.1373   -3.9022 P.3     1  UNL1        0.2208
     26 O          19.7591   71.8170   -2.7067 O.2     1  UNL1       -0.5170
     27 O          20.7047   69.6246   -3.5229 O.3     1  UNL1       -0.4371
     28 O          19.1917   71.1210   -5.0648 O.3     1  UNL1       -0.2865
     29 C          19.2387   72.3992   -5.7015 C.3     1  UNL1        0.2611
     30 C          17.8454   73.0299   -5.6715 C.3     1  UNL1        0.1582
     31 C          16.8599   72.1026   -6.3915 C.3     1  UNL1        0.1625
     32 C          17.4070   71.7964   -7.7897 C.3     1  UNL1        0.1686
     33 C          18.8326   71.2558   -7.6597 C.3     1  UNL1        0.1760
     34 O          15.5893   72.7468   -6.5014 O.3     1  UNL1       -0.3801
     35 O          16.5796   70.8189   -8.4233 O.3     1  UNL1       -0.3794
     36 O          19.6680   72.2403   -7.0520 O.3     1  UNL1       -0.3263
     37 H          15.0018   72.1297   -6.9589 H       1  UNL1        0.2105
     38 H          16.9595   70.6555   -9.2982 H       1  UNL1        0.2105
     39 C          16.6328   72.2952   -3.6907 C.2     1  UNL1        0.2231
     40 C          16.1953   72.4850   -2.2607 C.3     1  UNL1        0.0946
     41 N          17.4206   73.2136   -4.2823 N.am    1  UNL1       -0.2994
     42 O          16.2749   71.3156   -4.3092 O.2     1  UNL1       -0.2751
     43 H          17.7070   73.9977   -3.7875 H       1  UNL1        0.1496
     44 C          19.3766   70.9162   -9.0488 C.3     1  UNL1        0.1693
     45 O          18.6971   71.7001  -10.0317 O.3     1  UNL1       -0.3794
     46 H          19.0686   71.4558  -10.8901 H       1  UNL1        0.2105
@<TRIPOS>BOND
     1    29    30    1
     2    29    28    1
     3    29    36    1
     4    30    31    1
     5    30    41    1
     6    31    32    1
     7    31    34    1
     8    32    33    1
     9    32    35    1
    10    33    44    1
    11    33    36    1
    12    44    45    1
    13    39    40    1
    14    39    41   am
    15    39    42    2
    16    41    43    1
    17    28    25    1
    18    34    37    1
    19    35    38    1
    20    45    46    1
    21    15    16   ar
    22    15    20   ar
    23    15     6    1
    24    16    17   ar
    25    16    21    2
    26    17    18   ar
    27    17    23    1
    28    18    19   ar
    29    18    22    2
    30    19    20   ar
    31     6     7    1
    32     6    11    1
    33     7     8    1
    34     7     9    1
    35     8    13    1
    36     9    10    1
    37     9    12    1
    38    10    11    1
    39    10     5    1
    40    12    14    1
    41     5     4    1
    42     4     1    1
    43     1     2    2
    44     1     3    1
    45     1    24    1
    46    24    25    1
    47    25    26    2
    48    25    27    1
@<TRIPOS>MOLECULE
UD1
 46 48 0 0 0
SMALL
GASTEIGER

@<TRIPOS>ATOM
      1 P          22.2085   70.6930   -0.1408 P.3     1  UNL1        0.2189
      2 O          22.5113   72.0133   -0.7358 O.2     1  UNL1       -0.5170
      3 O          23.5780   69.8732    0.0716 O.3     1  UNL1       -0.4371
      4 O          21.2390   69.8697   -1.1283 O.3     1  UNL1       -0.3112
      5 C          20.8670   70.7607   -2.1809 C.3     1  UNL1        0.1811
      6 C          17.8616   71.1193   -4.1215 C.3     1  UNL1        0.2383
      7 C          18.2924   69.6476   -4.3416 C.3     1  UNL1        0.1895
      8 O          17.1566   68.8091   -4.5564 O.3     1  UNL1       -0.3779
      9 C          18.9856   69.3066   -2.9968 C.3     1  UNL1        0.1713
     10 C          19.3566   70.6813   -2.4077 C.3     1  UNL1        0.1764
     11 O          18.9519   71.6800   -3.3597 O.3     1  UNL1       -0.3308
     12 O          18.0850   68.6111   -2.1320 O.3     1  UNL1       -0.3794
     13 H          17.4918   67.9112   -4.6865 H       1  UNL1        0.2106
     14 H          17.8442   67.7900   -2.5815 H       1  UNL1        0.2105
     15 N          17.7147   71.8144   -5.4009 N.ar    1  UNL1       -0.2551
     16 C          18.8058   72.1036   -6.1311 C.ar    1  UNL1        0.3323
     17 N          18.7003   72.7387   -7.3134 N.ar    1  UNL1       -0.2743
     18 C          17.4904   73.1052   -7.7822 C.ar    1  UNL1        0.2626
     19 C          16.3340   72.8123   -7.0208 C.ar    1  UNL1        0.0795
     20 C          16.4681   72.1696   -5.8408 C.ar    1  UNL1        0.0869
     21 O          19.9040   71.7794   -5.7217 O.2     1  UNL1       -0.2464
     22 O          17.3942   73.6837   -8.8487 O.2     1  UNL1       -0.2670
     23 H          19.4975   72.9351   -7.8291 H       1  UNL1        0.1734
     24 O          21.4792   70.8985    1.2786 O.3     1  UNL1       -0.2703
     25 P          21.4915   72.4785    1.5832 P.3     1  UNL1        0.2208
     26 O          20.6464   73.1786    0.5909 O.2     1  UNL1       -0.5170
     27 O          23.0003   73.0324    1.4880 O.3     1  UNL1       -0.4371
     28 O          20.9157   72.7457    3.0622 O.3     1  UNL1       -0.2865
     29 C          20.9868   74.1549    3.2863 C.3     1  UNL1        0.2611
     30 C          21.7744   74.4230    4.5700 C.3     1  UNL1        0.1582
     31 C          21.0764   73.7233    5.7417 C.3     1  UNL1        0.1625
     32 C          19.6093   74.1648    5.7725 C.3     1  UNL1        0.1686
     33 C          18.9842   73.9132    4.3988 C.3     1  UNL1        0.1760
     34 O          21.7154   74.0877    6.9665 O.3     1  UNL1       -0.3801
     35 O          18.9053   73.4146    6.7641 O.3     1  UNL1       -0.3794
     36 O          19.6677   74.6823    3.4099 O.3     1  UNL1       -0.3263
     37 H          21.2458   73.6261    7.6748 H       1  UNL1        0.2105
     38 H          17.9881   73.7231    6.7493 H       1  UNL1        0.2105
     39 C          24.1800   74.6026    4.9090 C.2     1  UNL1        0.2231
     40 C          25.5809   74.0657    4.7618 C.3     1  UNL1        0.0946
     41 N          23.1354   73.9017    4.4277 N.am    1  UNL1       -0.2994
     42 O          23.9932   75.6662    5.4603 O.2     1  UNL1       -0.2751
     43 H          23.2846   73.0506    3.9862 H       1  UNL1        0.1496
     44 C          17.5097   74.3208    4.4285 C.3     1  UNL1        0.1693
     45 O          17.3423   75.4415    5.2991 O.3     1  UNL1       -0.3794
     46 H          16.4018   75.6654    5.2894 H       1  UNL1        0.2105
@<TRIPOS>BOND
     1    29    30    1
     2    29    28    1
     3    29    36    1
     4    30    31    1
     5    30    41    1
     6    31    32    1
     7    31    34    1
     8    32    33    1
     9    32    35    1
    10    33    44    1
    11    33    36    1
    12    44    45    1
    13    39    40    1
    14    39    41   am
    15    39    42    2
    16    41    43    1
    17    28    25    1
    18    34    37    1
    19    35    38    1
    20    45    46    1
    21    15    16   ar
    22    15    20   ar
    23    15     6    1
    24    16    17   ar
    25    16    21    2
    26    17    18   ar
    27    17    23    1
    28    18    19   ar
    29    18    22    2
    30    19    20   ar
    31     6     7    1
    32     6    11    1
    33     7     8    1
    34     7     9    1
    35     8    13    1
    36     9    10    1
    37     9    12    1
    38    10    11    1
    39    10     5    1
    40    12    14    1
    41     5     4    1
    42     4     1    1
    43     1     2    2
    44     1     3    1
    45     1    24    1
    46    24    25    1
    47    25    26    2
    48    25    27    1
@<TRIPOS>MOLECULE
UD1
 46 48 0 0 0
SMALL
GASTEIGER

@<TRIPOS>ATOM
      1 P          18.9156   70.1800   -3.2774 P.3     1  UNL1        0.2189
      2 O          18.2484   71.4986   -3.2081 O.2     1  UNL1       -0.5170
      3 O          18.2922   69.2037   -2.1590 O.3     1  UNL1       -0.4371
      4 O          20.4929   70.3626   -3.0100 O.3     1  UNL1       -0.3112
      5 C          20.6569   70.5328   -1.6013 C.3     1  UNL1        0.1811
      6 C          21.5850   73.2861    0.5165 C.3     1  UNL1        0.2383
      7 C          22.8942   72.9030   -0.2181 C.3     1  UNL1        0.1895
      8 O          23.7295   74.0462   -0.4038 O.3     1  UNL1       -0.3779
      9 C          22.3632   72.3789   -1.5777 C.3     1  UNL1        0.1713
     10 C          20.8948   72.0111   -1.2896 C.3     1  UNL1        0.1764
     11 O          20.6552   72.2613    0.1059 O.3     1  UNL1       -0.3308
     12 O          22.4435   73.4009   -2.5737 O.3     1  UNL1       -0.3794
     13 H          24.5237   73.7412   -0.8637 H       1  UNL1        0.2106
     14 H          23.3783   73.6288   -2.6652 H       1  UNL1        0.2105
     15 N          21.7762   73.2584    1.9671 N.ar    1  UNL1       -0.2551
     16 C          21.8865   72.0787    2.6022 C.ar    1  UNL1        0.3323
     17 N          22.0669   72.0233    3.9351 N.ar    1  UNL1       -0.2743
     18 C          22.1309   73.1584    4.6599 C.ar    1  UNL1        0.2626
     19 C          22.0103   74.4070    4.0048 C.ar    1  UNL1        0.0795
     20 C          21.8354   74.4339    2.6661 C.ar    1  UNL1        0.0869
     21 O          21.8309   71.0462    1.9622 O.2     1  UNL1       -0.2464
     22 O          22.2892   73.1093    5.8657 O.2     1  UNL1       -0.2670
     23 H          22.1493   71.1637    4.3762 H       1  UNL1        0.1734
     24 O          18.6893   69.5400   -4.7362 O.3     1  UNL1       -0.2703
     25 P          17.2459   70.0383   -5.2437 P.3     1  UNL1        0.2208
     26 O          16.4770   70.5708   -4.0974 O.2     1  UNL1       -0.5170
     27 O          16.4486   68.8005   -5.8952 O.3     1  UNL1       -0.4371
     28 O          17.4335   71.1945   -6.3475 O.3     1  UNL1       -0.2865
     29 C          18.8028   71.5990   -6.2954 C.3     1  UNL1        0.2611
     30 C          18.8973   73.0994   -6.5780 C.3     1  UNL1        0.1582
     31 C          18.3000   73.3878   -7.9599 C.3     1  UNL1        0.1625
     32 C          18.9888   72.4858   -8.9895 C.3     1  UNL1        0.1686
     33 C          18.8846   71.0312   -8.5264 C.3     1  UNL1        0.1760
     34 O          18.5167   74.7589   -8.2985 O.3     1  UNL1       -0.3801
     35 O          18.3475   72.6322  -10.2579 O.3     1  UNL1       -0.3794
     36 O          19.5481   70.8757   -7.2726 O.3     1  UNL1       -0.3263
     37 H          18.1259   74.8960   -9.1725 H       1  UNL1        0.2105
     38 H          18.8108   72.0479  -10.8747 H       1  UNL1        0.2105
     39 C          16.8544   74.1423   -5.7574 C.2     1  UNL1        0.2231
     40 C          16.0870   74.9032   -4.7065 C.3     1  UNL1        0.0946
     41 N          18.1512   73.8381   -5.5572 N.am    1  UNL1       -0.2994
     42 O          16.3046   73.8044   -6.7839 O.2     1  UNL1       -0.2751
     43 H          18.5915   74.1086   -4.7359 H       1  UNL1        0.1496
     44 C          19.5413   70.1186   -9.5643 C.3     1  UNL1        0.1693
     45 O          18.6781   69.9843  -10.6952 O.3     1  UNL1       -0.3794
     46 H          19.1280   69.4031  -11.3232 H       1  UNL1        0.2105
@<TRIPOS>BOND
     1    29    30    1
     2    29    28    1
     3    29    36    1
     4    30    31    1
     5    30    41    1
     6    31    32    1
     7    31    34    1
     8    32    33    1
     9    32    35    1
    10    33    44    1
    11    33    36    1
    12    44    45    1
    13    39    40    1
    14    39    41   am
    15    39    42    2
    16    41    43    1
    17    28    25    1
    18    34    37    1
    19    35    38    1
    20    45    46    1
    21    15    16   ar
    22    15    20   ar
    23    15     6    1
    24    16    17   ar
    25    16    21    2
    26    17    18   ar
    27    17    23    1
    28    18    19   ar
    29    18    22    2
    30    19    20   ar
    31     6     7    1
    32     6    11    1
    33     7     8    1
    34     7     9    1
    35     8    13    1
    36     9    10    1
    37     9    12    1
    38    10    11    1
    39    10     5    1
    40    12    14    1
    41     5     4    1
    42     4     1    1
    43     1     2    2
    44     1     3    1
    45     1    24    1
    46    24    25    1
    47    25    26    2
    48    25    27    1
