@<TRIPOS>MOLECULE
UDP-glaA
 43 45 0 0 0
SMALL
GASTEIGER

@<TRIPOS>ATOM
      1 P          22.6955   71.8397   -3.3092 P.3     1  UNL1        0.2189
      2 O          23.8872   72.2772   -4.3121 O.3     1  UNL1       -0.4371
      3 O          23.1120   70.9319   -2.1892 O.2     1  UNL1       -0.5170
      4 O          21.5501   71.2616   -4.2937 O.3     1  UNL1       -0.3112
      5 C          20.6851   70.2500   -3.8061 C.3     1  UNL1        0.1811
      6 O          18.9106   71.5337   -4.7949 O.3     1  UNL1       -0.3308
      7 O          17.1529   70.4172   -2.6374 O.3     1  UNL1       -0.3794
      8 O          16.5045   68.8754   -4.7910 O.3     1  UNL1       -0.3779
      9 C          18.2267   69.7929   -3.3408 C.3     1  UNL1        0.1713
     10 C          17.7978   69.4422   -4.7500 C.3     1  UNL1        0.1895
     11 C          19.3010   70.8441   -3.5870 C.3     1  UNL1        0.1764
     12 C          17.8666   70.7909   -5.4459 C.3     1  UNL1        0.2383
     13 H          17.4853   70.6585   -1.7560 H       1  UNL1        0.2105
     14 H          16.5169   68.0774   -4.2349 H       1  UNL1        0.2106
     15 O          15.9540   70.3459   -7.4754 O.2     1  UNL1       -0.2464
     16 O          19.1781   70.3508  -10.7683 O.2     1  UNL1       -0.2670
     17 N          18.1782   70.6724   -6.8416 N.ar    1  UNL1       -0.2551
     18 N          17.5608   70.3481   -9.1138 N.ar    1  UNL1       -0.2743
     19 C          17.1437   70.4484   -7.7799 C.ar    1  UNL1        0.3323
     20 C          19.4972   70.7778   -7.2688 C.ar    1  UNL1        0.0869
     21 C          19.8787   70.6804   -8.5443 C.ar    1  UNL1        0.0795
     22 C          18.8602   70.4458   -9.5869 C.ar    1  UNL1        0.2626
     23 H          16.8340   70.1865   -9.8057 H       1  UNL1        0.1734
     24 O          22.0830   73.2588   -2.8335 O.3     1  UNL1       -0.2703
     25 P          21.4915   73.7333   -1.4061 P.3     1  UNL1        0.2208
     26 O          20.4595   72.5493   -1.0200 O.3     1  UNL1       -0.4371
     27 O          20.8835   75.1066   -1.4171 O.2     1  UNL1       -0.5170
     28 O          22.7203   73.5565   -0.3751 O.3     1  UNL1       -0.2858
     29 O          23.2174   72.1349    1.4501 O.3     1  UNL1       -0.3226
     30 O          24.5017   75.8320    2.8506 O.3     1  UNL1       -0.3794
     31 O          22.0166   75.6010    1.3417 O.3     1  UNL1       -0.3775
     32 O          24.6659   73.2041    3.6856 O.3     1  UNL1       -0.3792
     33 C          24.2347   74.7904    1.9157 C.3     1  UNL1        0.1718
     34 C          22.7332   74.4884    1.8665 C.3     1  UNL1        0.1968
     35 C          25.0077   73.5374    2.3362 C.3     1  UNL1        0.1723
     36 C          22.4550   73.2575    0.9947 C.3     1  UNL1        0.2706
     37 C          24.6246   72.3697    1.4295 C.3     1  UNL1        0.1830
     38 H          25.4616   75.9876    2.8503 H       1  UNL1        0.2105
     39 H          21.0751   75.3602    1.3209 H       1  UNL1        0.2106
     40 H          23.7695   72.8278    3.6932 H       1  UNL1        0.2106
     41 O          24.4304   70.0434    1.6626 O.co2   1  UNL1       -0.5466
     42 O          26.3690   71.0009    2.3850 O.co2   1  UNL1       -0.5466
     43 C          25.2576   71.0932    1.8843 C.2     1  UNL1        0.0799
@<TRIPOS>UNITY_ATOM_ATTR
41 1
charge -1
@<TRIPOS>BOND
     1     1     4    1
     2     1    24    1
     3     1     2    1
     4     1     3    2
     5    25    28    1
     6    25    24    1
     7    25    26    1
     8    25    27    2
     9     6    11    1
    10     6    12    1
    11    29    36    1
    12    29    37    1
    13     7     9    1
    14     7    13    1
    15     8    10    1
    16     8    14    1
    17     4     5    1
    18    28    36    1
    19    30    33    1
    20    30    38    1
    21    31    34    1
    22    31    39    1
    23    32    35    1
    24    32    40    1
    25    41    43   ar
    26    15    19    2
    27    42    43   ar
    28    16    22    2
    29    17    12    1
    30    17    19   ar
    31    17    20   ar
    32    18    19   ar
    33    18    22   ar
    34    18    23    1
    35     9    10    1
    36     9    11    1
    37    10    12    1
    38    11     5    1
    39    33    34    1
    40    33    35    1
    41    34    36    1
    42    35    37    1
    43    37    43    1
    44    20    21   ar
    45    21    22   ar
@<TRIPOS>MOLECULE
UDP-glaA
 43 45 0 0 0
SMALL
GASTEIGER

@<TRIPOS>ATOM
      1 P          22.6491   72.4400   -4.5272 P.3     1  UNL1        0.2189
      2 O          23.0372   72.4814   -6.0972 O.3     1  UNL1       -0.4371
      3 O          23.3554   71.3840   -3.7283 O.2     1  UNL1       -0.5170
      4 O          21.0339   72.3589   -4.5269 O.3     1  UNL1       -0.3112
      5 C          20.4104   71.2700   -3.8674 C.3     1  UNL1        0.1811
      6 O          18.4419   72.0084   -5.0311 O.3     1  UNL1       -0.3308
      7 O          16.8796   70.7425   -2.8067 O.3     1  UNL1       -0.3794
      8 O          16.6971   68.8850   -4.7946 O.3     1  UNL1       -0.3779
      9 C          18.0983   70.3125   -3.4129 C.3     1  UNL1        0.1713
     10 C          17.8266   69.7334   -4.7852 C.3     1  UNL1        0.1895
     11 C          18.9194   71.5511   -3.7465 C.3     1  UNL1        0.1764
     12 C          17.6236   70.9852   -5.6217 C.3     1  UNL1        0.2383
     13 H          17.1071   71.1406   -1.9492 H       1  UNL1        0.2105
     14 H          16.8621   68.1710   -4.1550 H       1  UNL1        0.2106
     15 O          15.8763   70.2027   -7.6977 O.2     1  UNL1       -0.2464
     16 O          19.2555   70.3086  -10.8295 O.2     1  UNL1       -0.2670
     17 N          18.0197   70.8014   -6.9886 N.ar    1  UNL1       -0.2551
     18 N          17.5602   70.2554   -9.2557 N.ar    1  UNL1       -0.2743
     19 C          17.0644   70.4059   -7.9540 C.ar    1  UNL1        0.3323
     20 C          19.3426   71.0123   -7.3614 C.ar    1  UNL1        0.0869
     21 C          19.7996   70.8651   -8.6068 C.ar    1  UNL1        0.0795
     22 C          18.8668   70.4534   -9.6745 C.ar    1  UNL1        0.2626
     23 H          16.8913   69.9711   -9.9663 H       1  UNL1        0.1734
     24 O          22.9366   73.9559   -4.0427 O.3     1  UNL1       -0.2703
     25 P          24.1126   74.5686   -3.1185 P.3     1  UNL1        0.2208
     26 O          23.6861   76.1202   -2.9555 O.3     1  UNL1       -0.4371
     27 O          25.4965   74.3600   -3.6638 O.2     1  UNL1       -0.5170
     28 O          23.8661   73.9219   -1.6608 O.3     1  UNL1       -0.2858
     29 O          21.8685   73.0691   -0.7218 O.3     1  UNL1       -0.3226
     30 O          23.8616   74.5082    2.6302 O.3     1  UNL1       -0.3794
     31 O          23.8767   76.0186    0.1354 O.3     1  UNL1       -0.3775
     32 O          21.5942   73.0103    2.1348 O.3     1  UNL1       -0.3792
     33 C          23.6882   73.9189    1.3445 C.3     1  UNL1        0.1718
     34 C          23.0186   74.9110    0.3877 C.3     1  UNL1        0.1968
     35 C          22.8230   72.6637    1.4876 C.3     1  UNL1        0.1723
     36 C          22.6723   74.2326   -0.9435 C.3     1  UNL1        0.2706
     37 C          22.5075   72.0975    0.1049 C.3     1  UNL1        0.1830
     38 H          24.2853   73.8455    3.2019 H       1  UNL1        0.2105
     39 H          23.4156   76.6127   -0.4805 H       1  UNL1        0.2106
     40 H          21.0379   73.4953    1.5019 H       1  UNL1        0.2106
     41 O          21.8372   70.1723    1.2658 O.co2   1  UNL1       -0.5466
     42 O          20.6490   70.7264   -0.5991 O.co2   1  UNL1       -0.5466
     43 C          21.5574   70.9455    0.1890 C.2     1  UNL1        0.0799
@<TRIPOS>UNITY_ATOM_ATTR
41 1
charge -1
@<TRIPOS>BOND
     1     1     4    1
     2     1    24    1
     3     1     2    1
     4     1     3    2
     5    25    28    1
     6    25    24    1
     7    25    26    1
     8    25    27    2
     9     6    11    1
    10     6    12    1
    11    29    36    1
    12    29    37    1
    13     7     9    1
    14     7    13    1
    15     8    10    1
    16     8    14    1
    17     4     5    1
    18    28    36    1
    19    30    33    1
    20    30    38    1
    21    31    34    1
    22    31    39    1
    23    32    35    1
    24    32    40    1
    25    41    43   ar
    26    15    19    2
    27    42    43   ar
    28    16    22    2
    29    17    12    1
    30    17    19   ar
    31    17    20   ar
    32    18    19   ar
    33    18    22   ar
    34    18    23    1
    35     9    10    1
    36     9    11    1
    37    10    12    1
    38    11     5    1
    39    33    34    1
    40    33    35    1
    41    34    36    1
    42    35    37    1
    43    37    43    1
    44    20    21   ar
    45    21    22   ar
@<TRIPOS>MOLECULE
UDP-glaA
 43 45 0 0 0
SMALL
GASTEIGER

@<TRIPOS>ATOM
      1 P          21.5187   72.4029   -2.0555 P.3     1  UNL1        0.2189
      2 O          20.5440   73.6575   -2.3607 O.3     1  UNL1       -0.4371
      3 O          22.8786   72.4902   -2.6842 O.2     1  UNL1       -0.5170
      4 O          20.6348   71.1131   -2.4686 O.3     1  UNL1       -0.3112
      5 C          20.1038   71.0480   -3.7812 C.3     1  UNL1        0.1811
      6 O          18.1689   71.7782   -5.0050 O.3     1  UNL1       -0.3308
      7 O          16.5461   70.3661   -2.9160 O.3     1  UNL1       -0.3794
      8 O          16.5174   68.5958   -4.9898 O.3     1  UNL1       -0.3779
      9 C          17.8053   70.0013   -3.4809 C.3     1  UNL1        0.1713
     10 C          17.6170   69.4768   -4.8888 C.3     1  UNL1        0.1895
     11 C          18.6004   71.2780   -3.7202 C.3     1  UNL1        0.1764
     12 C          17.4128   70.7585   -5.6785 C.3     1  UNL1        0.2383
     13 H          16.7202   70.7318   -2.0319 H       1  UNL1        0.2105
     14 H          16.6753   67.8589   -4.3748 H       1  UNL1        0.2106
     15 O          15.7341   70.3771   -7.9173 O.2     1  UNL1       -0.2464
     16 O          19.3104   70.3492  -10.8238 O.2     1  UNL1       -0.2670
     17 N          17.8782   70.6487   -7.0316 N.ar    1  UNL1       -0.2551
     18 N          17.5161   70.3629   -9.3631 N.ar    1  UNL1       -0.2743
     19 C          16.9525   70.4574   -8.0838 C.ar    1  UNL1        0.3323
     20 C          19.2390   70.7305   -7.3053 C.ar    1  UNL1        0.0869
     21 C          19.7607   70.6391   -8.5305 C.ar    1  UNL1        0.0795
     22 C          18.8625   70.4379   -9.6848 C.ar    1  UNL1        0.2626
     23 H          16.8695   70.2246  -10.1350 H       1  UNL1        0.1734
     24 O          21.5269   72.3351   -0.4398 O.3     1  UNL1       -0.2703
     25 P          22.4214   71.4562    0.5800 P.3     1  UNL1        0.2208
     26 O          23.6956   71.0273   -0.3191 O.3     1  UNL1       -0.4371
     27 O          21.6887   70.3044    1.2064 O.2     1  UNL1       -0.5170
     28 O          23.0081   72.5264    1.6358 O.3     1  UNL1       -0.2858
     29 O          24.5680   72.5729    3.4145 O.3     1  UNL1       -0.3226
     30 O          21.3220   74.5902    5.0496 O.3     1  UNL1       -0.3794
     31 O          20.9159   72.2128    3.4098 O.3     1  UNL1       -0.3775
     32 O          23.9428   74.0937    5.7672 O.3     1  UNL1       -0.3792
     33 C          22.2401   74.1460    4.0546 C.3     1  UNL1        0.1718
     34 C          22.1822   72.6209    3.9166 C.3     1  UNL1        0.1968
     35 C          23.6524   74.5826    4.4536 C.3     1  UNL1        0.1723
     36 C          23.2837   72.1184    2.9751 C.3     1  UNL1        0.2706
     37 C          24.6669   73.9949    3.4751 C.3     1  UNL1        0.1830
     38 H          21.3945   75.5583    5.1044 H       1  UNL1        0.2105
     39 H          20.9298   71.2441    3.3308 H       1  UNL1        0.2106
     40 H          24.1000   73.1358    5.7125 H       1  UNL1        0.2106
     41 O          26.9082   73.3022    3.4980 O.co2   1  UNL1       -0.5466
     42 O          26.4224   75.2801    4.5222 O.co2   1  UNL1       -0.5466
     43 C          26.0706   74.2882    3.9002 C.2     1  UNL1        0.0799
@<TRIPOS>UNITY_ATOM_ATTR
41 1
charge -1
@<TRIPOS>BOND
     1     1     4    1
     2     1    24    1
     3     1     2    1
     4     1     3    2
     5    25    28    1
     6    25    24    1
     7    25    26    1
     8    25    27    2
     9     6    11    1
    10     6    12    1
    11    29    36    1
    12    29    37    1
    13     7     9    1
    14     7    13    1
    15     8    10    1
    16     8    14    1
    17     4     5    1
    18    28    36    1
    19    30    33    1
    20    30    38    1
    21    31    34    1
    22    31    39    1
    23    32    35    1
    24    32    40    1
    25    41    43   ar
    26    15    19    2
    27    42    43   ar
    28    16    22    2
    29    17    12    1
    30    17    19   ar
    31    17    20   ar
    32    18    19   ar
    33    18    22   ar
    34    18    23    1
    35     9    10    1
    36     9    11    1
    37    10    12    1
    38    11     5    1
    39    33    34    1
    40    33    35    1
    41    34    36    1
    42    35    37    1
    43    37    43    1
    44    20    21   ar
    45    21    22   ar
@<TRIPOS>MOLECULE
UDP-glaA
 43 45 0 0 0
SMALL
GASTEIGER

@<TRIPOS>ATOM
      1 P          23.4787   71.9858   -3.2707 P.3     1  UNL1        0.2189
      2 O          24.1461   73.0432   -4.2973 O.3     1  UNL1       -0.4371
      3 O          24.2770   70.7358   -3.0418 O.2     1  UNL1       -0.5170
      4 O          21.9846   71.7694   -3.8508 O.3     1  UNL1       -0.3112
      5 C          21.5373   72.6097   -4.9010 C.3     1  UNL1        0.1811
      6 O          20.6747   70.5912   -5.8785 O.3     1  UNL1       -0.3308
      7 O          21.0517   71.9366   -8.5316 O.3     1  UNL1       -0.3794
      8 O          18.3757   72.2236   -8.0934 O.3     1  UNL1       -0.3779
      9 C          20.6510   72.4993   -7.2824 C.3     1  UNL1        0.1713
     10 C          19.2212   72.1134   -6.9671 C.3     1  UNL1        0.1895
     11 C          21.4235   71.7897   -6.1782 C.3     1  UNL1        0.1764
     12 C          19.3786   70.6785   -6.4933 C.3     1  UNL1        0.2383
     13 H          21.9834   72.1771   -8.6723 H       1  UNL1        0.2105
     14 H          18.4152   73.1459   -8.3999 H       1  UNL1        0.2106
     15 O          16.7765   69.8030   -7.1551 O.2     1  UNL1       -0.2464
     16 O          15.6289   69.2763   -2.7229 O.2     1  UNL1       -0.2670
     17 N          18.3798   70.3057   -5.5327 N.ar    1  UNL1       -0.2551
     18 N          16.2066   69.5418   -4.9476 N.ar    1  UNL1       -0.2743
     19 C          17.1034   69.8806   -5.9694 C.ar    1  UNL1        0.3323
     20 C          18.6692   70.3635   -4.1739 C.ar    1  UNL1        0.0869
     21 C          17.8035   70.0367   -3.2119 C.ar    1  UNL1        0.0795
     22 C          16.4484   69.5835   -3.5832 C.ar    1  UNL1        0.2626
     23 H          15.2826   69.2339   -5.2382 H       1  UNL1        0.1734
     24 O          23.2279   72.8770   -1.9448 O.3     1  UNL1       -0.2703
     25 P          23.3076   74.4743   -1.7102 P.3     1  UNL1        0.2208
     26 O          21.9997   75.0286   -2.4836 O.3     1  UNL1       -0.4371
     27 O          24.6003   75.0981   -2.1524 O.2     1  UNL1       -0.5170
     28 O          22.9719   74.6748   -0.1446 O.3     1  UNL1       -0.2858
     29 O          21.2210   73.1056    0.1223 O.3     1  UNL1       -0.3226
     30 O          22.0935   74.1150    4.0592 O.3     1  UNL1       -0.3794
     31 O          22.0329   76.1626    1.9832 O.3     1  UNL1       -0.3775
     32 O          20.5240   72.2432    2.7697 O.3     1  UNL1       -0.3792
     33 C          22.3236   73.8518    2.6778 C.3     1  UNL1        0.1718
     34 C          21.5384   74.8391    1.8077 C.3     1  UNL1        0.1968
     35 C          21.8865   72.4176    2.3675 C.3     1  UNL1        0.1723
     36 C          21.6421   74.4585    0.3256 C.3     1  UNL1        0.2706
     37 C          21.9919   72.1627    0.8654 C.3     1  UNL1        0.1830
     38 H          22.6067   73.4666    4.5708 H       1  UNL1        0.2105
     39 H          21.5134   76.7486    1.4075 H       1  UNL1        0.2106
     40 H          19.9525   72.7068    2.1344 H       1  UNL1        0.2106
     41 O          20.7400   70.8829   -0.6508 O.co2   1  UNL1       -0.5466
     42 O          21.6284   69.7919    1.1429 O.co2   1  UNL1       -0.5466
     43 C          21.4525   70.8165    0.4997 C.2     1  UNL1        0.0799
@<TRIPOS>UNITY_ATOM_ATTR
41 1
charge -1
@<TRIPOS>BOND
     1     1     4    1
     2     1    24    1
     3     1     2    1
     4     1     3    2
     5    25    28    1
     6    25    24    1
     7    25    26    1
     8    25    27    2
     9     6    11    1
    10     6    12    1
    11    29    36    1
    12    29    37    1
    13     7     9    1
    14     7    13    1
    15     8    10    1
    16     8    14    1
    17     4     5    1
    18    28    36    1
    19    30    33    1
    20    30    38    1
    21    31    34    1
    22    31    39    1
    23    32    35    1
    24    32    40    1
    25    41    43   ar
    26    15    19    2
    27    42    43   ar
    28    16    22    2
    29    17    12    1
    30    17    19   ar
    31    17    20   ar
    32    18    19   ar
    33    18    22   ar
    34    18    23    1
    35     9    10    1
    36     9    11    1
    37    10    12    1
    38    11     5    1
    39    33    34    1
    40    33    35    1
    41    34    36    1
    42    35    37    1
    43    37    43    1
    44    20    21   ar
    45    21    22   ar
@<TRIPOS>MOLECULE
UDP-glaA
 43 45 0 0 0
SMALL
GASTEIGER

@<TRIPOS>ATOM
      1 P          22.1623   71.7216   -2.3302 P.3     1  UNL1        0.2189
      2 O          22.3106   73.2696   -2.7764 O.3     1  UNL1       -0.4371
      3 O          23.3718   70.8707   -2.5852 O.2     1  UNL1       -0.5170
      4 O          20.7976   71.2374   -3.0504 O.3     1  UNL1       -0.3112
      5 C          20.1599   72.1209   -3.9571 C.3     1  UNL1        0.1811
      6 O          18.0483   72.1976   -5.1014 O.3     1  UNL1       -0.3308
      7 O          16.9329   70.7051   -2.7520 O.3     1  UNL1       -0.3794
      8 O          17.2528   68.7360   -4.6110 O.3     1  UNL1       -0.3779
      9 C          18.2153   70.5908   -3.3685 C.3     1  UNL1        0.1713
     10 C          18.0989   69.8643   -4.6918 C.3     1  UNL1        0.1895
     11 C          18.6516   71.9827   -3.8064 C.3     1  UNL1        0.1764
     12 C          17.5421   70.9481   -5.5992 C.3     1  UNL1        0.2383
     13 H          17.0508   71.2099   -1.9292 H       1  UNL1        0.2105
     14 H          17.6197   68.1429   -3.9329 H       1  UNL1        0.2106
     15 O          15.8084   70.2700   -7.7228 O.2     1  UNL1       -0.2464
     16 O          19.2423   70.3538  -10.7952 O.2     1  UNL1       -0.2670
     17 N          17.9559   70.7868   -6.9637 N.ar    1  UNL1       -0.2551
     18 N          17.5196   70.3117   -9.2512 N.ar    1  UNL1       -0.2743
     19 C          17.0062   70.4442   -7.9543 C.ar    1  UNL1        0.3323
     20 C          19.2906   70.9675   -7.3092 C.ar    1  UNL1        0.0869
     21 C          19.7644   70.8380   -8.5504 C.ar    1  UNL1        0.0795
     22 C          18.8384   70.4810   -9.6434 C.ar    1  UNL1        0.2626
     23 H          16.8549   70.0652   -9.9796 H       1  UNL1        0.1734
     24 O          21.7325   71.8324   -0.7751 O.3     1  UNL1       -0.2703
     25 P          22.3870   71.1868    0.5544 P.3     1  UNL1        0.2208
     26 O          23.9510   71.0454    0.1669 O.3     1  UNL1       -0.4371
     27 O          21.7404   69.9065    0.9998 O.2     1  UNL1       -0.5170
     28 O          22.3429   72.3719    1.6487 O.3     1  UNL1       -0.2858
     29 O          20.8560   74.0571    2.3891 O.3     1  UNL1       -0.3226
     30 O          24.4105   76.1659    1.9443 O.3     1  UNL1       -0.3794
     31 O          23.6214   74.1607   -0.0211 O.3     1  UNL1       -0.3775
     32 O          21.9002   76.6637    2.9839 O.3     1  UNL1       -0.3792
     33 C          23.5501   75.0673    2.2327 C.3     1  UNL1        0.1718
     34 C          22.7532   74.6708    0.9853 C.3     1  UNL1        0.1968
     35 C          22.5942   75.4694    3.3592 C.3     1  UNL1        0.1723
     36 C          21.7033   73.6062    1.3272 C.3     1  UNL1        0.2706
     37 C          21.5719   74.3578    3.5860 C.3     1  UNL1        0.1830
     38 H          24.8919   76.3837    2.7606 H       1  UNL1        0.2105
     39 H          23.0728   73.9151   -0.7849 H       1  UNL1        0.2106
     40 H          21.2379   76.4371    2.3093 H       1  UNL1        0.2106
     41 O          20.9275   74.4195    5.8410 O.co2   1  UNL1       -0.5466
     42 O          19.4864   75.3248    4.3243 O.co2   1  UNL1       -0.5466
     43 C          20.5384   74.7612    4.5890 C.2     1  UNL1        0.0799
@<TRIPOS>UNITY_ATOM_ATTR
41 1
charge -1
@<TRIPOS>BOND
     1     1     4    1
     2     1    24    1
     3     1     2    1
     4     1     3    2
     5    25    28    1
     6    25    24    1
     7    25    26    1
     8    25    27    2
     9     6    11    1
    10     6    12    1
    11    29    36    1
    12    29    37    1
    13     7     9    1
    14     7    13    1
    15     8    10    1
    16     8    14    1
    17     4     5    1
    18    28    36    1
    19    30    33    1
    20    30    38    1
    21    31    34    1
    22    31    39    1
    23    32    35    1
    24    32    40    1
    25    41    43   ar
    26    15    19    2
    27    42    43   ar
    28    16    22    2
    29    17    12    1
    30    17    19   ar
    31    17    20   ar
    32    18    19   ar
    33    18    22   ar
    34    18    23    1
    35     9    10    1
    36     9    11    1
    37    10    12    1
    38    11     5    1
    39    33    34    1
    40    33    35    1
    41    34    36    1
    42    35    37    1
    43    37    43    1
    44    20    21   ar
    45    21    22   ar
@<TRIPOS>MOLECULE
UDP-glaA
 43 45 0 0 0
SMALL
GASTEIGER

@<TRIPOS>ATOM
      1 P          21.3251   72.7540   -4.5660 P.3     1  UNL1        0.2189
      2 O          21.0738   74.2033   -3.8925 O.3     1  UNL1       -0.4371
      3 O          22.1768   72.7693   -5.8015 O.2     1  UNL1       -0.5170
      4 O          19.8380   72.1441   -4.7449 O.3     1  UNL1       -0.3112
      5 C          19.2993   71.3542   -3.6984 C.3     1  UNL1        0.1811
      6 O          17.4411   71.7107   -5.1797 O.3     1  UNL1       -0.3308
      7 O          15.8269   70.0870   -3.2433 O.3     1  UNL1       -0.3794
      8 O          16.3620   68.2917   -5.2248 O.3     1  UNL1       -0.3779
      9 C          17.1912   69.9327   -3.6341 C.3     1  UNL1        0.1713
     10 C          17.2752   69.3517   -5.0298 C.3     1  UNL1        0.1895
     11 C          17.7834   71.3220   -3.8310 C.3     1  UNL1        0.1764
     12 C          16.9601   70.5604   -5.8945 C.3     1  UNL1        0.2383
     13 H          15.8226   70.4973   -2.3617 H       1  UNL1        0.2105
     14 H          16.5623   67.6074   -4.5631 H       1  UNL1        0.2106
     15 O          15.6118   70.7203   -8.3707 O.2     1  UNL1       -0.2464
     16 O          19.5421   70.3231  -10.7441 O.2     1  UNL1       -0.2670
     17 N          17.6060   70.5021   -7.1746 N.ar    1  UNL1       -0.2551
     18 N          17.5698   70.5219   -9.5509 N.ar    1  UNL1       -0.2743
     19 C          16.8372   70.5907   -8.3586 C.ar    1  UNL1        0.3323
     20 C          18.9871   70.3584   -7.2482 C.ar    1  UNL1        0.0869
     21 C          19.6709   70.2949   -8.3928 C.ar    1  UNL1        0.0795
     22 C          18.9431   70.3789   -9.6745 C.ar    1  UNL1        0.2626
     23 H          17.0377   70.5829  -10.4148 H       1  UNL1        0.1734
     24 O          21.9289   71.8857   -3.3426 O.3     1  UNL1       -0.2703
     25 P          23.3749   71.9321   -2.6218 P.3     1  UNL1        0.2208
     26 O          23.9782   73.3573   -3.0916 O.3     1  UNL1       -0.4371
     27 O          24.2548   70.7545   -2.9299 O.2     1  UNL1       -0.5170
     28 O          23.0444   72.1252   -1.0542 O.3     1  UNL1       -0.2858
     29 O          24.3684   71.1344    0.6384 O.3     1  UNL1       -0.3226
     30 O          20.7995   71.8652    2.6404 O.3     1  UNL1       -0.3794
     31 O          20.7836   70.8614   -0.0979 O.3     1  UNL1       -0.3775
     32 O          23.3447   71.0331    3.3180 O.3     1  UNL1       -0.3792
     33 C          21.8636   72.0676    1.7146 C.3     1  UNL1        0.1718
     34 C          21.9430   70.8981    0.7275 C.3     1  UNL1        0.1968
     35 C          23.1783   72.1888    2.4901 C.3     1  UNL1        0.1723
     36 C          23.1867   71.0211   -0.1615 C.3     1  UNL1        0.2706
     37 C          24.3471   72.2637    1.5101 C.3     1  UNL1        0.1830
     38 H          20.7883   72.6262    3.2455 H       1  UNL1        0.2105
     39 H          20.8832   70.1133   -0.7105 H       1  UNL1        0.2106
     40 H          23.5823   70.2792    2.7520 H       1  UNL1        0.2106
     41 O          26.0697   70.9815    2.4547 O.co2   1  UNL1       -0.5466
     42 O          26.2886   73.2485    2.5543 O.co2   1  UNL1       -0.5466
     43 C          25.6613   72.2526    2.2240 C.2     1  UNL1        0.0799
@<TRIPOS>UNITY_ATOM_ATTR
41 1
charge -1
@<TRIPOS>BOND
     1     1     4    1
     2     1    24    1
     3     1     2    1
     4     1     3    2
     5    25    28    1
     6    25    24    1
     7    25    26    1
     8    25    27    2
     9     6    11    1
    10     6    12    1
    11    29    36    1
    12    29    37    1
    13     7     9    1
    14     7    13    1
    15     8    10    1
    16     8    14    1
    17     4     5    1
    18    28    36    1
    19    30    33    1
    20    30    38    1
    21    31    34    1
    22    31    39    1
    23    32    35    1
    24    32    40    1
    25    41    43   ar
    26    15    19    2
    27    42    43   ar
    28    16    22    2
    29    17    12    1
    30    17    19   ar
    31    17    20   ar
    32    18    19   ar
    33    18    22   ar
    34    18    23    1
    35     9    10    1
    36     9    11    1
    37    10    12    1
    38    11     5    1
    39    33    34    1
    40    33    35    1
    41    34    36    1
    42    35    37    1
    43    37    43    1
    44    20    21   ar
    45    21    22   ar
@<TRIPOS>MOLECULE
UDP-glaA
 43 45 0 0 0
SMALL
GASTEIGER

@<TRIPOS>ATOM
      1 P          20.7611   73.4920   -1.7230 P.3     1  UNL1        0.2189
      2 O          19.3496   73.8208   -1.0040 O.3     1  UNL1       -0.4371
      3 O          21.4250   74.6662   -2.3809 O.2     1  UNL1       -0.5170
      4 O          20.4232   72.2419   -2.6917 O.3     1  UNL1       -0.3112
      5 C          19.7890   72.4989   -3.9331 C.3     1  UNL1        0.1811
      6 O          17.7125   72.2769   -5.1218 O.3     1  UNL1       -0.3308
      7 O          16.7345   70.7283   -2.7476 O.3     1  UNL1       -0.3794
      8 O          17.3412   68.7594   -4.5340 O.3     1  UNL1       -0.3779
      9 C          18.0357   70.7565   -3.3339 C.3     1  UNL1        0.1713
     10 C          18.0425   69.9815   -4.6347 C.3     1  UNL1        0.1895
     11 C          18.3063   72.1782   -3.8085 C.3     1  UNL1        0.1764
     12 C          17.3775   70.9595   -5.5884 C.3     1  UNL1        0.2383
     13 H          16.7688   71.2685   -1.9398 H       1  UNL1        0.2105
     14 H          17.7624   68.2375   -3.8294 H       1  UNL1        0.2106
     15 O          15.7090   70.3911   -7.7948 O.2     1  UNL1       -0.2464
     16 O          19.2677   70.4056  -10.7229 O.2     1  UNL1       -0.2670
     17 N          17.8411   70.8100   -6.9382 N.ar    1  UNL1       -0.2551
     18 N          17.4822   70.3982   -9.2513 N.ar    1  UNL1       -0.2743
     19 C          16.9210   70.5240   -7.9737 C.ar    1  UNL1        0.3323
     20 C          19.1948   70.9466   -7.2253 C.ar    1  UNL1        0.0869
     21 C          19.7143   70.8242   -8.4488 C.ar    1  UNL1        0.0795
     22 C          18.8215   70.5249   -9.5859 C.ar    1  UNL1        0.2626
     23 H          16.8395   70.1920  -10.0112 H       1  UNL1        0.1734
     24 O          21.6219   72.8095   -0.5362 O.3     1  UNL1       -0.2703
     25 P          21.4475   71.3913    0.2194 P.3     1  UNL1        0.2208
     26 O          22.9722   70.8996    0.4422 O.3     1  UNL1       -0.4371
     27 O          20.5791   70.4071   -0.5106 O.2     1  UNL1       -0.5170
     28 O          20.9227   71.7765    1.6959 O.3     1  UNL1       -0.2858
     29 O          22.9453   71.8992    2.9179 O.3     1  UNL1       -0.3226
     30 O          23.4141   74.9629    0.1478 O.3     1  UNL1       -0.3794
     31 O          20.8425   74.5255    1.4522 O.3     1  UNL1       -0.3775
     32 O          24.9952   73.7007    2.0286 O.3     1  UNL1       -0.3792
     33 C          22.9948   73.7071    0.6746 C.3     1  UNL1        0.1718
     34 C          22.0588   73.9148    1.8701 C.3     1  UNL1        0.1968
     35 C          24.2308   72.9145    1.1086 C.3     1  UNL1        0.1723
     36 C          21.7398   72.5770    2.5490 C.3     1  UNL1        0.2706
     37 C          23.7962   71.6270    1.8055 C.3     1  UNL1        0.1830
     38 H          24.0051   74.7833   -0.6032 H       1  UNL1        0.2105
     39 H          20.2803   74.6277    2.2385 H       1  UNL1        0.2106
     40 H          24.5298   73.7171    2.8819 H       1  UNL1        0.2106
     41 O          26.1043   71.6094    2.2256 O.co2   1  UNL1       -0.5466
     42 O          24.9173   69.7737    2.8724 O.co2   1  UNL1       -0.5466
     43 C          24.9687   70.8831    2.3614 C.2     1  UNL1        0.0799
@<TRIPOS>UNITY_ATOM_ATTR
41 1
charge -1
@<TRIPOS>BOND
     1     1     4    1
     2     1    24    1
     3     1     2    1
     4     1     3    2
     5    25    28    1
     6    25    24    1
     7    25    26    1
     8    25    27    2
     9     6    11    1
    10     6    12    1
    11    29    36    1
    12    29    37    1
    13     7     9    1
    14     7    13    1
    15     8    10    1
    16     8    14    1
    17     4     5    1
    18    28    36    1
    19    30    33    1
    20    30    38    1
    21    31    34    1
    22    31    39    1
    23    32    35    1
    24    32    40    1
    25    41    43   ar
    26    15    19    2
    27    42    43   ar
    28    16    22    2
    29    17    12    1
    30    17    19   ar
    31    17    20   ar
    32    18    19   ar
    33    18    22   ar
    34    18    23    1
    35     9    10    1
    36     9    11    1
    37    10    12    1
    38    11     5    1
    39    33    34    1
    40    33    35    1
    41    34    36    1
    42    35    37    1
    43    37    43    1
    44    20    21   ar
    45    21    22   ar
@<TRIPOS>MOLECULE
UDP-glaA
 43 45 0 0 0
SMALL
GASTEIGER

@<TRIPOS>ATOM
      1 P          21.9280   72.4579   -5.7725 P.3     1  UNL1        0.2189
      2 O          21.1125   73.7872   -5.3421 O.3     1  UNL1       -0.4371
      3 O          23.1400   72.7062   -6.6219 O.2     1  UNL1       -0.5170
      4 O          20.7980   71.5009   -6.4227 O.3     1  UNL1       -0.3112
      5 C          20.1836   71.9049   -7.6346 C.3     1  UNL1        0.1811
      6 O          18.9287   69.9014   -7.2038 O.3     1  UNL1       -0.3308
      7 O          18.1115   70.0170  -10.0866 O.3     1  UNL1       -0.3794
      8 O          15.9207   71.0153   -8.8061 O.3     1  UNL1       -0.3779
      9 C          18.3243   71.0858   -9.1646 C.3     1  UNL1        0.1713
     10 C          17.1776   71.1653   -8.1790 C.3     1  UNL1        0.1895
     11 C          19.4922   70.7042   -8.2646 C.3     1  UNL1        0.1764
     12 C          17.4969   70.0226   -7.2302 C.3     1  UNL1        0.2383
     13 H          18.8874   69.9800  -10.6715 H       1  UNL1        0.2105
     14 H          15.8404   71.7189   -9.4729 H       1  UNL1        0.2106
     15 O          16.2350   68.0897   -5.6033 O.2     1  UNL1       -0.2464
     16 O          15.7225   71.0788   -2.1333 O.2     1  UNL1       -0.2670
     17 N          17.0243   70.2682   -5.8977 N.ar    1  UNL1       -0.2551
     18 N          15.9802   69.5796   -3.8766 N.ar    1  UNL1       -0.2743
     19 C          16.4035   69.2292   -5.1655 C.ar    1  UNL1        0.3323
     20 C          17.1775   71.5277   -5.3289 C.ar    1  UNL1        0.0869
     21 C          16.7690   71.8459   -4.0986 C.ar    1  UNL1        0.0795
     22 C          16.1102   70.8184   -3.2681 C.ar    1  UNL1        0.2626
     23 H          15.5306   68.8485   -3.3321 H       1  UNL1        0.1734
     24 O          22.2345   71.7455   -4.3535 O.3     1  UNL1       -0.2703
     25 P          23.4884   71.8896   -3.3437 P.3     1  UNL1        0.2208
     26 O          24.3644   73.0767   -4.0068 O.3     1  UNL1       -0.4371
     27 O          24.2460   70.6128   -3.1164 O.2     1  UNL1       -0.5170
     28 O          22.8636   72.5412   -2.0062 O.3     1  UNL1       -0.2858
     29 O          22.9882   71.0169   -0.2006 O.3     1  UNL1       -0.3226
     30 O          20.8903   74.1879    1.4796 O.3     1  UNL1       -0.3794
     31 O          20.3251   73.3156   -1.2454 O.3     1  UNL1       -0.3775
     32 O          22.0426   71.8445    2.3800 O.3     1  UNL1       -0.3792
     33 C          21.8339   73.5166    0.6493 C.3     1  UNL1        0.1718
     34 C          21.1155   72.5740   -0.3222 C.3     1  UNL1        0.1968
     35 C          22.7960   72.7212    1.5359 C.3     1  UNL1        0.1723
     36 C          22.1263   71.7221   -1.0999 C.3     1  UNL1        0.2706
     37 C          23.7254   71.8826    0.6612 C.3     1  UNL1        0.1830
     38 H          21.3884   74.7701    2.0784 H       1  UNL1        0.2105
     39 H          19.8986   72.6793   -1.8438 H       1  UNL1        0.2106
     40 H          21.7060   71.1095    1.8400 H       1  UNL1        0.2106
     41 O          24.0283   70.7494    2.6929 O.co2   1  UNL1       -0.5466
     42 O          25.6732   70.5347    1.1292 O.co2   1  UNL1       -0.5466
     43 C          24.5967   70.9905    1.4870 C.2     1  UNL1        0.0799
@<TRIPOS>UNITY_ATOM_ATTR
41 1
charge -1
@<TRIPOS>BOND
     1     1     4    1
     2     1    24    1
     3     1     2    1
     4     1     3    2
     5    25    28    1
     6    25    24    1
     7    25    26    1
     8    25    27    2
     9     6    11    1
    10     6    12    1
    11    29    36    1
    12    29    37    1
    13     7     9    1
    14     7    13    1
    15     8    10    1
    16     8    14    1
    17     4     5    1
    18    28    36    1
    19    30    33    1
    20    30    38    1
    21    31    34    1
    22    31    39    1
    23    32    35    1
    24    32    40    1
    25    41    43   ar
    26    15    19    2
    27    42    43   ar
    28    16    22    2
    29    17    12    1
    30    17    19   ar
    31    17    20   ar
    32    18    19   ar
    33    18    22   ar
    34    18    23    1
    35     9    10    1
    36     9    11    1
    37    10    12    1
    38    11     5    1
    39    33    34    1
    40    33    35    1
    41    34    36    1
    42    35    37    1
    43    37    43    1
    44    20    21   ar
    45    21    22   ar
@<TRIPOS>MOLECULE
UDP-glaA
 43 45 0 0 0
SMALL
GASTEIGER

@<TRIPOS>ATOM
      1 P          22.1480   73.9439   -2.1032 P.3     1  UNL1        0.2189
      2 O          20.7815   74.2499   -1.2931 O.3     1  UNL1       -0.4371
      3 O          22.8441   75.1554   -2.6507 O.2     1  UNL1       -0.5170
      4 O          21.7141   72.8302   -3.1927 O.3     1  UNL1       -0.3112
      5 C          20.5143   73.0267   -3.9214 C.3     1  UNL1        0.1811
      6 O          18.5023   71.8262   -4.4549 O.3     1  UNL1       -0.3308
      7 O          19.1090   70.1200   -2.0649 O.3     1  UNL1       -0.3794
      8 O          19.9441   68.5586   -4.1387 O.3     1  UNL1       -0.3779
      9 C          20.0068   70.7088   -3.0057 C.3     1  UNL1        0.1713
     10 C          19.9555   69.9594   -4.3204 C.3     1  UNL1        0.1895
     11 C          19.4518   72.0728   -3.3944 C.3     1  UNL1        0.1764
     12 C          18.6650   70.4797   -4.9302 C.3     1  UNL1        0.2383
     13 H          19.1470   70.6553   -1.2540 H       1  UNL1        0.2105
     14 H          20.7491   68.3206   -3.6472 H       1  UNL1        0.2106
     15 O          16.5579   69.5942   -6.5890 O.2     1  UNL1       -0.2464
     16 O          18.9212   70.5717  -10.4228 O.2     1  UNL1       -0.2670
     17 N          18.7025   70.4921   -6.3647 N.ar    1  UNL1       -0.2551
     18 N          17.7364   70.0811   -8.4970 N.ar    1  UNL1       -0.2743
     19 C          17.5913   70.0244   -7.1046 C.ar    1  UNL1        0.3323
     20 C          19.8318   70.9638   -7.0246 C.ar    1  UNL1        0.0869
     21 C          19.9546   71.0118   -8.3529 C.ar    1  UNL1        0.0795
     22 C          18.8398   70.5414   -9.1987 C.ar    1  UNL1        0.2626
     23 H          16.9501   69.7494   -9.0492 H       1  UNL1        0.1734
     24 O          23.0171   73.0913   -1.0388 O.3     1  UNL1       -0.2703
     25 P          23.0846   71.5012   -0.7567 P.3     1  UNL1        0.2208
     26 O          23.7655   70.9144   -2.1014 O.3     1  UNL1       -0.4371
     27 O          21.7617   70.8803   -0.4100 O.2     1  UNL1       -0.5170
     28 O          24.2174   71.3353    0.3805 O.3     1  UNL1       -0.2858
     29 O          24.4115   72.2971    2.5338 O.3     1  UNL1       -0.3226
     30 O          20.3459   72.6959    1.7651 O.3     1  UNL1       -0.3794
     31 O          21.7607   70.2544    1.0278 O.3     1  UNL1       -0.3775
     32 O          22.1177   73.5748    3.6934 O.3     1  UNL1       -0.3792
     33 C          21.7443   72.6388    1.4980 C.3     1  UNL1        0.1718
     34 C          22.3044   71.2626    1.8733 C.3     1  UNL1        0.1968
     35 C          22.4484   73.7299    2.3093 C.3     1  UNL1        0.1723
     36 C          23.8332   71.2468    1.7519 C.3     1  UNL1        0.2706
     37 C          23.9609   73.5945    2.1474 C.3     1  UNL1        0.1830
     38 H          20.0355   73.5830    1.5156 H       1  UNL1        0.2105
     39 H          22.1502   69.4052    1.2960 H       1  UNL1        0.2106
     40 H          22.5992   72.8053    4.0416 H       1  UNL1        0.2106
     41 O          24.9682   73.9980    4.2274 O.co2   1  UNL1       -0.5466
     42 O          25.0083   75.6966    2.7075 O.co2   1  UNL1       -0.5466
     43 C          24.6937   74.5588    3.0249 C.2     1  UNL1        0.0799
@<TRIPOS>UNITY_ATOM_ATTR
41 1
charge -1
@<TRIPOS>BOND
     1     1     4    1
     2     1    24    1
     3     1     2    1
     4     1     3    2
     5    25    28    1
     6    25    24    1
     7    25    26    1
     8    25    27    2
     9     6    11    1
    10     6    12    1
    11    29    36    1
    12    29    37    1
    13     7     9    1
    14     7    13    1
    15     8    10    1
    16     8    14    1
    17     4     5    1
    18    28    36    1
    19    30    33    1
    20    30    38    1
    21    31    34    1
    22    31    39    1
    23    32    35    1
    24    32    40    1
    25    41    43   ar
    26    15    19    2
    27    42    43   ar
    28    16    22    2
    29    17    12    1
    30    17    19   ar
    31    17    20   ar
    32    18    19   ar
    33    18    22   ar
    34    18    23    1
    35     9    10    1
    36     9    11    1
    37    10    12    1
    38    11     5    1
    39    33    34    1
    40    33    35    1
    41    34    36    1
    42    35    37    1
    43    37    43    1
    44    20    21   ar
    45    21    22   ar
@<TRIPOS>MOLECULE
UDP-glaA
 43 45 0 0 0
SMALL
GASTEIGER

@<TRIPOS>ATOM
      1 P          21.4844   72.3348   -4.7817 P.3     1  UNL1        0.2189
      2 O          20.7863   73.7930   -4.8409 O.3     1  UNL1       -0.4371
      3 O          22.6180   72.1361   -5.7449 O.2     1  UNL1       -0.5170
      4 O          20.2470   71.3040   -4.9301 O.3     1  UNL1       -0.3112
      5 C          19.5968   70.8524   -3.7544 C.3     1  UNL1        0.1811
      6 O          17.8539   71.7139   -5.1666 O.3     1  UNL1       -0.3308
      7 O          15.9299   70.4289   -3.2591 O.3     1  UNL1       -0.3794
      8 O          15.9869   68.6573   -5.3313 O.3     1  UNL1       -0.3779
      9 C          17.2109   69.9731   -3.6939 C.3     1  UNL1        0.1713
     10 C          17.1304   69.4581   -5.1155 C.3     1  UNL1        0.1895
     11 C          18.1153   71.1891   -3.8462 C.3     1  UNL1        0.1764
     12 C          17.0998   70.7481   -5.9174 C.3     1  UNL1        0.2383
     13 H          16.0385   70.7846   -2.3607 H       1  UNL1        0.2105
     14 H          16.0283   67.9134   -4.7060 H       1  UNL1        0.2106
     15 O          15.6634   70.8515   -8.3467 O.2     1  UNL1       -0.2464
     16 O          19.4767   70.1660  -10.8422 O.2     1  UNL1       -0.2670
     17 N          17.6918   70.6004   -7.2162 N.ar    1  UNL1       -0.2551
     18 N          17.5632   70.5095   -9.5878 N.ar    1  UNL1       -0.2743
     19 C          16.8817   70.6675   -8.3738 C.ar    1  UNL1        0.3323
     20 C          19.0614   70.3912   -7.3340 C.ar    1  UNL1        0.0869
     21 C          19.6964   70.2430   -8.4987 C.ar    1  UNL1        0.0795
     22 C          18.9231   70.2991   -9.7551 C.ar    1  UNL1        0.2626
     23 H          17.0007   70.5536  -10.4332 H       1  UNL1        0.1734
     24 O          21.8917   72.1911   -3.2233 O.3     1  UNL1       -0.2703
     25 P          23.3335   72.0028   -2.5173 P.3     1  UNL1        0.2208
     26 O          23.9882   73.4788   -2.6110 O.3     1  UNL1       -0.4371
     27 O          24.1748   70.9122   -3.1160 O.2     1  UNL1       -0.5170
     28 O          22.9990   71.8031   -0.9513 O.3     1  UNL1       -0.2858
     29 O          21.8899   73.6015    0.1140 O.3     1  UNL1       -0.3226
     30 O          23.0644   71.2656    3.3456 O.3     1  UNL1       -0.3794
     31 O          24.8599   71.6765    1.0843 O.3     1  UNL1       -0.3775
     32 O          21.4682   73.4851    2.9507 O.3     1  UNL1       -0.3792
     33 C          22.6220   71.5746    2.0268 C.3     1  UNL1        0.1718
     34 C          23.6678   72.4251    1.2979 C.3     1  UNL1        0.1968
     35 C          21.2965   72.3360    2.1148 C.3     1  UNL1        0.1723
     36 C          23.1295   72.9059   -0.0554 C.3     1  UNL1        0.2706
     37 C          20.8778   72.8001    0.7214 C.3     1  UNL1        0.1830
     38 H          22.3722   70.7299    3.7692 H       1  UNL1        0.2105
     39 H          25.4866   72.2511    0.6132 H       1  UNL1        0.2106
     40 H          21.9818   74.1495    2.4609 H       1  UNL1        0.2106
     41 O          18.7431   73.2521   -0.1402 O.co2   1  UNL1       -0.5466
     42 O          19.4914   74.5996    1.5395 O.co2   1  UNL1       -0.5466
     43 C          19.6549   73.6595    0.7754 C.2     1  UNL1        0.0799
@<TRIPOS>UNITY_ATOM_ATTR
41 1
charge -1
@<TRIPOS>BOND
     1     1     4    1
     2     1    24    1
     3     1     2    1
     4     1     3    2
     5    25    28    1
     6    25    24    1
     7    25    26    1
     8    25    27    2
     9     6    11    1
    10     6    12    1
    11    29    36    1
    12    29    37    1
    13     7     9    1
    14     7    13    1
    15     8    10    1
    16     8    14    1
    17     4     5    1
    18    28    36    1
    19    30    33    1
    20    30    38    1
    21    31    34    1
    22    31    39    1
    23    32    35    1
    24    32    40    1
    25    41    43   ar
    26    15    19    2
    27    42    43   ar
    28    16    22    2
    29    17    12    1
    30    17    19   ar
    31    17    20   ar
    32    18    19   ar
    33    18    22   ar
    34    18    23    1
    35     9    10    1
    36     9    11    1
    37    10    12    1
    38    11     5    1
    39    33    34    1
    40    33    35    1
    41    34    36    1
    42    35    37    1
    43    37    43    1
    44    20    21   ar
    45    21    22   ar
@<TRIPOS>MOLECULE
UDP-glaA
 43 45 0 0 0
SMALL
GASTEIGER

@<TRIPOS>ATOM
      1 P          22.4298   73.4834   -6.4710 P.3     1  UNL1        0.2189
      2 O          21.3396   74.4628   -5.7859 O.3     1  UNL1       -0.4371
      3 O          23.2573   74.1150   -7.5520 O.2     1  UNL1       -0.5170
      4 O          21.5675   72.1883   -6.9121 O.3     1  UNL1       -0.3112
      5 C          20.3176   72.3915   -7.5489 C.3     1  UNL1        0.1811
      6 O          19.4136   70.2337   -7.0002 O.3     1  UNL1       -0.3308
      7 O          18.5516   70.0731   -9.8677 O.3     1  UNL1       -0.3794
      8 O          16.2434   70.7622   -8.5898 O.3     1  UNL1       -0.3779
      9 C          18.5981   71.2062   -9.0007 C.3     1  UNL1        0.1713
     10 C          17.4667   71.1458   -7.9964 C.3     1  UNL1        0.1895
     11 C          19.8242   71.0647   -8.1084 C.3     1  UNL1        0.1764
     12 C          17.9811   70.1183   -7.0026 C.3     1  UNL1        0.2383
     13 H          19.3155   70.1346  -10.4663 H       1  UNL1        0.2105
     14 H          16.0404   71.4098   -9.2866 H       1  UNL1        0.2106
     15 O          16.3204   68.3298   -5.5818 O.2     1  UNL1       -0.2464
     16 O          16.1625   71.1075   -1.9078 O.2     1  UNL1       -0.2670
     17 N          17.4917   70.3484   -5.6733 N.ar    1  UNL1       -0.2551
     18 N          16.2425   69.7144   -3.7534 N.ar    1  UNL1       -0.2743
     19 C          16.6629   69.3871   -5.0493 C.ar    1  UNL1        0.3323
     20 C          17.8335   71.5169   -5.0015 C.ar    1  UNL1        0.0869
     21 C          17.4250   71.8142   -3.7660 C.ar    1  UNL1        0.0795
     22 C          16.5558   70.8637   -3.0444 C.ar    1  UNL1        0.2626
     23 H          15.6452   69.0381   -3.2855 H       1  UNL1        0.1734
     24 O          23.2767   72.9415   -5.2043 O.3     1  UNL1       -0.2703
     25 P          22.7936   72.3843   -3.7661 P.3     1  UNL1        0.2208
     26 O          23.9213   71.2854   -3.3960 O.3     1  UNL1       -0.4371
     27 O          21.3868   71.8585   -3.7501 O.2     1  UNL1       -0.5170
     28 O          23.0611   73.6041   -2.7441 O.3     1  UNL1       -0.2858
     29 O          21.3735   73.0748   -1.1719 O.3     1  UNL1       -0.3226
     30 O          23.7602   75.7201    0.9695 O.3     1  UNL1       -0.3794
     31 O          23.1570   76.2115   -1.8413 O.3     1  UNL1       -0.3775
     32 O          21.6245   74.0551    1.5141 O.3     1  UNL1       -0.3792
     33 C          23.4267   74.6945    0.0382 C.3     1  UNL1        0.1718
     34 C          22.4886   75.2397   -1.0440 C.3     1  UNL1        0.1968
     35 C          22.7485   73.5453    0.7890 C.3     1  UNL1        0.1723
     36 C          21.9880   74.1076   -1.9496 C.3     1  UNL1        0.2706
     37 C          22.2560   72.4999   -0.2094 C.3     1  UNL1        0.1830
     38 H          24.3516   75.3304    1.6357 H       1  UNL1        0.2105
     39 H          22.5288   76.5198   -2.5160 H       1  UNL1        0.2106
     40 H          20.9126   74.2519    0.8819 H       1  UNL1        0.2106
     41 O          20.1495   71.5566    0.2108 O.co2   1  UNL1       -0.5466
     42 O          21.9527   70.5349    1.1604 O.co2   1  UNL1       -0.5466
     43 C          21.4726   71.4215    0.4691 C.2     1  UNL1        0.0799
@<TRIPOS>UNITY_ATOM_ATTR
41 1
charge -1
@<TRIPOS>BOND
     1     1     4    1
     2     1    24    1
     3     1     2    1
     4     1     3    2
     5    25    28    1
     6    25    24    1
     7    25    26    1
     8    25    27    2
     9     6    11    1
    10     6    12    1
    11    29    36    1
    12    29    37    1
    13     7     9    1
    14     7    13    1
    15     8    10    1
    16     8    14    1
    17     4     5    1
    18    28    36    1
    19    30    33    1
    20    30    38    1
    21    31    34    1
    22    31    39    1
    23    32    35    1
    24    32    40    1
    25    41    43   ar
    26    15    19    2
    27    42    43   ar
    28    16    22    2
    29    17    12    1
    30    17    19   ar
    31    17    20   ar
    32    18    19   ar
    33    18    22   ar
    34    18    23    1
    35     9    10    1
    36     9    11    1
    37    10    12    1
    38    11     5    1
    39    33    34    1
    40    33    35    1
    41    34    36    1
    42    35    37    1
    43    37    43    1
    44    20    21   ar
    45    21    22   ar
@<TRIPOS>MOLECULE
UDP-glaA
 43 45 0 0 0
SMALL
GASTEIGER

@<TRIPOS>ATOM
      1 P          22.0764   71.4714   -2.8849 P.3     1  UNL1        0.2189
      2 O          21.8784   73.0630   -2.6736 O.3     1  UNL1       -0.4371
      3 O          23.4759   71.0468   -3.2215 O.2     1  UNL1       -0.5170
      4 O          20.9426   71.0782   -3.9691 O.3     1  UNL1       -0.3112
      5 C          20.0259   70.0462   -3.6467 C.3     1  UNL1        0.1811
      6 O          18.3702   71.3845   -4.7611 O.3     1  UNL1       -0.3308
      7 O          16.3879   70.1796   -2.8610 O.3     1  UNL1       -0.3794
      8 O          15.9759   68.7428   -5.1417 O.3     1  UNL1       -0.3779
      9 C          17.5312   69.5823   -3.4723 C.3     1  UNL1        0.1713
     10 C          17.2575   69.2996   -4.9344 C.3     1  UNL1        0.1895
     11 C          18.6267   70.6375   -3.5514 C.3     1  UNL1        0.1764
     12 C          17.4024   70.6786   -5.5552 C.3     1  UNL1        0.2383
     13 H          16.6229   70.3780   -1.9385 H       1  UNL1        0.2105
     14 H          15.9273   67.9199   -4.6253 H       1  UNL1        0.2106
     15 O          15.7300   70.2622   -7.7923 O.2     1  UNL1       -0.2464
     16 O          19.2830   70.4814  -10.7192 O.2     1  UNL1       -0.2670
     17 N          17.8635   70.6229   -6.9130 N.ar    1  UNL1       -0.2551
     18 N          17.5004   70.3711   -9.2483 N.ar    1  UNL1       -0.2743
     19 C          16.9415   70.4082   -7.9640 C.ar    1  UNL1        0.3323
     20 C          19.2165   70.7801   -7.1926 C.ar    1  UNL1        0.0869
     21 C          19.7337   70.7427   -8.4225 C.ar    1  UNL1        0.0795
     22 C          18.8390   70.5218   -9.5759 C.ar    1  UNL1        0.2626
     23 H          16.8563   70.2172  -10.0194 H       1  UNL1        0.1734
     24 O          21.4959   70.8483   -1.5102 O.3     1  UNL1       -0.2703
     25 P          21.8902   71.1310    0.0316 P.3     1  UNL1        0.2208
     26 O          23.4522   71.5420   -0.0542 O.3     1  UNL1       -0.4371
     27 O          21.6001   69.9875    0.9612 O.2     1  UNL1       -0.5170
     28 O          21.1267   72.5030    0.4041 O.3     1  UNL1       -0.2858
     29 O          21.9669   74.6793    0.8005 O.3     1  UNL1       -0.3226
     30 O          18.7118   74.5189    3.3808 O.3     1  UNL1       -0.3794
     31 O          20.4714   72.2139    3.0705 O.3     1  UNL1       -0.3775
     32 O          20.4829   76.4491    2.5046 O.3     1  UNL1       -0.3792
     33 C          19.4904   74.2660    2.2145 C.3     1  UNL1        0.1718
     34 C          20.7753   73.5161    2.5820 C.3     1  UNL1        0.1968
     35 C          19.8351   75.6017    1.5500 C.3     1  UNL1        0.1723
     36 C          21.6985   73.3909    1.3636 C.3     1  UNL1        0.2706
     37 C          20.7869   75.3622    0.3800 C.3     1  UNL1        0.1830
     38 H          17.9118   74.9960    3.1017 H       1  UNL1        0.2105
     39 H          21.3132   71.7754    3.2803 H       1  UNL1        0.2106
     40 H          21.3876   76.1218    2.6444 H       1  UNL1        0.2106
     41 O          22.3517   76.4522   -0.9864 O.co2   1  UNL1       -0.5466
     42 O          20.7203   77.7378   -0.0468 O.co2   1  UNL1       -0.5466
     43 C          21.2532   76.6511   -0.2187 C.2     1  UNL1        0.0799
@<TRIPOS>UNITY_ATOM_ATTR
41 1
charge -1
@<TRIPOS>BOND
     1     1     4    1
     2     1    24    1
     3     1     2    1
     4     1     3    2
     5    25    28    1
     6    25    24    1
     7    25    26    1
     8    25    27    2
     9     6    11    1
    10     6    12    1
    11    29    36    1
    12    29    37    1
    13     7     9    1
    14     7    13    1
    15     8    10    1
    16     8    14    1
    17     4     5    1
    18    28    36    1
    19    30    33    1
    20    30    38    1
    21    31    34    1
    22    31    39    1
    23    32    35    1
    24    32    40    1
    25    41    43   ar
    26    15    19    2
    27    42    43   ar
    28    16    22    2
    29    17    12    1
    30    17    19   ar
    31    17    20   ar
    32    18    19   ar
    33    18    22   ar
    34    18    23    1
    35     9    10    1
    36     9    11    1
    37    10    12    1
    38    11     5    1
    39    33    34    1
    40    33    35    1
    41    34    36    1
    42    35    37    1
    43    37    43    1
    44    20    21   ar
    45    21    22   ar
@<TRIPOS>MOLECULE
UDP-glaA
 43 45 0 0 0
SMALL
GASTEIGER

@<TRIPOS>ATOM
      1 P          22.3600   71.1454    0.3374 P.3     1  UNL1        0.2189
      2 O          23.8838   70.9230   -0.1585 O.3     1  UNL1       -0.4371
      3 O          21.8068   70.0457    1.1957 O.2     1  UNL1       -0.5170
      4 O          21.5466   71.4491   -1.0270 O.3     1  UNL1       -0.3112
      5 C          22.0055   72.4906   -1.8718 C.3     1  UNL1        0.1811
      6 O          21.7041   70.7028   -3.4489 O.3     1  UNL1       -0.3308
      7 O          23.1923   72.4245   -5.4014 O.3     1  UNL1       -0.3794
      8 O          20.5943   72.7904   -6.1444 O.3     1  UNL1       -0.3779
      9 C          22.2688   72.8059   -4.3819 C.3     1  UNL1        0.1713
     10 C          20.8550   72.4569   -4.7967 C.3     1  UNL1        0.1895
     11 C          22.4853   71.8891   -3.1851 C.3     1  UNL1        0.1764
     12 C          20.8134   70.9589   -4.5472 C.3     1  UNL1        0.2383
     13 H          24.0850   72.6309   -5.0757 H       1  UNL1        0.2105
     14 H          20.7480   73.7456   -6.2446 H       1  UNL1        0.2106
     15 O          18.7532   70.4615   -6.4136 O.2     1  UNL1       -0.2464
     16 O          15.8105   69.1910   -3.1023 O.2     1  UNL1       -0.2670
     17 N          19.4996   70.4971   -4.2007 N.ar    1  UNL1       -0.2551
     18 N          17.2890   69.8297   -4.7634 N.ar    1  UNL1       -0.2743
     19 C          18.5373   70.2790   -5.2141 C.ar    1  UNL1        0.3323
     20 C          19.1754   70.2651   -2.8686 C.ar    1  UNL1        0.0869
     21 C          17.9809   69.8363   -2.4550 C.ar    1  UNL1        0.0795
     22 C          16.9195   69.5851   -3.4499 C.ar    1  UNL1        0.2626
     23 H          16.5813   69.6667   -5.4746 H       1  UNL1        0.1734
     24 O          22.4201   72.5938    1.0543 O.3     1  UNL1       -0.2703
     25 P          21.3235   73.3846    1.9403 P.3     1  UNL1        0.2208
     26 O          20.5490   72.1970    2.7186 O.3     1  UNL1       -0.4371
     27 O          20.4285   74.2922    1.1460 O.2     1  UNL1       -0.5170
     28 O          22.1830   74.1302    3.0845 O.3     1  UNL1       -0.2858
     29 O          24.3677   73.5903    3.8158 O.3     1  UNL1       -0.3226
     30 O          22.7096   75.3075    7.2189 O.3     1  UNL1       -0.3794
     31 O          21.1406   73.4928    5.5603 O.3     1  UNL1       -0.3775
     32 O          25.2134   74.4600    6.4172 O.3     1  UNL1       -0.3792
     33 C          22.9549   75.0867    5.8328 C.3     1  UNL1        0.1718
     34 C          22.5488   73.6627    5.4384 C.3     1  UNL1        0.1968
     35 C          24.4446   75.3031    5.5529 C.3     1  UNL1        0.1723
     36 C          22.9664   73.3590    3.9942 C.3     1  UNL1        0.2706
     37 C          24.7535   74.9334    4.1037 C.3     1  UNL1        0.1830
     38 H          22.9830   76.2179    7.4238 H       1  UNL1        0.2105
     39 H          20.9305   72.5825    5.2919 H       1  UNL1        0.2106
     40 H          25.1405   73.5439    6.0999 H       1  UNL1        0.2106
     41 O          26.8100   73.8061    4.0426 O.co2   1  UNL1       -0.5466
     42 O          26.8130   76.0047    3.4399 O.co2   1  UNL1       -0.5466
     43 C          26.2205   75.0057    3.8213 C.2     1  UNL1        0.0799
@<TRIPOS>UNITY_ATOM_ATTR
41 1
charge -1
@<TRIPOS>BOND
     1     1     4    1
     2     1    24    1
     3     1     2    1
     4     1     3    2
     5    25    28    1
     6    25    24    1
     7    25    26    1
     8    25    27    2
     9     6    11    1
    10     6    12    1
    11    29    36    1
    12    29    37    1
    13     7     9    1
    14     7    13    1
    15     8    10    1
    16     8    14    1
    17     4     5    1
    18    28    36    1
    19    30    33    1
    20    30    38    1
    21    31    34    1
    22    31    39    1
    23    32    35    1
    24    32    40    1
    25    41    43   ar
    26    15    19    2
    27    42    43   ar
    28    16    22    2
    29    17    12    1
    30    17    19   ar
    31    17    20   ar
    32    18    19   ar
    33    18    22   ar
    34    18    23    1
    35     9    10    1
    36     9    11    1
    37    10    12    1
    38    11     5    1
    39    33    34    1
    40    33    35    1
    41    34    36    1
    42    35    37    1
    43    37    43    1
    44    20    21   ar
    45    21    22   ar
@<TRIPOS>MOLECULE
UDP-glaA
 43 45 0 0 0
SMALL
GASTEIGER

@<TRIPOS>ATOM
      1 P          21.0120   71.0632   -2.7528 P.3     1  UNL1        0.2189
      2 O          20.9125   69.7528   -3.6963 O.3     1  UNL1       -0.4371
      3 O          21.6965   70.8441   -1.4354 O.2     1  UNL1       -0.5170
      4 O          19.4893   71.6022   -2.6726 O.3     1  UNL1       -0.3112
      5 C          18.9357   72.2404   -3.8108 C.3     1  UNL1        0.1811
      6 O          17.0791   71.9835   -5.3145 O.3     1  UNL1       -0.3308
      7 O          15.8151   70.3112   -3.1704 O.3     1  UNL1       -0.3794
      8 O          16.7754   68.4349   -4.9005 O.3     1  UNL1       -0.3779
      9 C          17.1887   70.4110   -3.5459 C.3     1  UNL1        0.1713
     10 C          17.4298   69.6859   -4.8531 C.3     1  UNL1        0.1895
     11 C          17.4670   71.8587   -3.9285 C.3     1  UNL1        0.1764
     12 C          16.8779   70.6726   -5.8679 C.3     1  UNL1        0.2383
     13 H          15.7009   70.8218   -2.3507 H       1  UNL1        0.2105
     14 H          17.1052   67.9036   -4.1555 H       1  UNL1        0.2106
     15 O          15.5712   70.6670   -8.3716 O.2     1  UNL1       -0.2464
     16 O          19.5603   70.3549  -10.6581 O.2     1  UNL1       -0.2670
     17 N          17.5501   70.5914   -7.1331 N.ar    1  UNL1       -0.2551
     18 N          17.5585   70.5111   -9.5085 N.ar    1  UNL1       -0.2743
     19 C          16.8009   70.5951   -8.3329 C.ar    1  UNL1        0.3323
     20 C          18.9375   70.5091   -7.1769 C.ar    1  UNL1        0.0869
     21 C          19.6453   70.4301   -8.3058 C.ar    1  UNL1        0.0795
     22 C          18.9390   70.4271   -9.6023 C.ar    1  UNL1        0.2626
     23 H          17.0408   70.5115  -10.3832 H       1  UNL1        0.1734
     24 O          21.7309   72.1476   -3.7133 O.3     1  UNL1       -0.2703
     25 P          23.1768   72.8624   -3.6091 P.3     1  UNL1        0.2208
     26 O          24.2038   71.6145   -3.5436 O.3     1  UNL1       -0.4371
     27 O          23.3044   73.8309   -2.4683 O.2     1  UNL1       -0.5170
     28 O          23.4172   73.5130   -5.0661 O.3     1  UNL1       -0.2858
     29 O          22.1896   75.3587   -5.8944 O.3     1  UNL1       -0.3226
     30 O          23.5332   73.5646   -9.3952 O.3     1  UNL1       -0.3794
     31 O          22.5726   71.9398   -7.1718 O.3     1  UNL1       -0.3775
     32 O          22.2508   75.9132   -8.7100 O.3     1  UNL1       -0.3792
     33 C          23.5489   73.9909   -8.0356 C.3     1  UNL1        0.1718
     34 C          22.3929   73.3492   -7.2609 C.3     1  UNL1        0.1968
     35 C          23.4248   75.5164   -7.9936 C.3     1  UNL1        0.1723
     36 C          22.2978   73.9322   -5.8455 C.3     1  UNL1        0.2706
     37 C          23.2967   75.9811   -6.5445 C.3     1  UNL1        0.1830
     38 H          24.2785   73.9962   -9.8466 H       1  UNL1        0.2105
     39 H          21.8241   71.5799   -6.6667 H       1  UNL1        0.2106
     40 H          21.4715   75.6920   -8.1725 H       1  UNL1        0.2106
     41 O          23.6564   78.1018   -7.4812 O.co2   1  UNL1       -0.5466
     42 O          22.3731   78.0020   -5.5996 O.co2   1  UNL1       -0.5466
     43 C          23.0430   77.4528   -6.4622 C.2     1  UNL1        0.0799
@<TRIPOS>UNITY_ATOM_ATTR
41 1
charge -1
@<TRIPOS>BOND
     1     1     4    1
     2     1    24    1
     3     1     2    1
     4     1     3    2
     5    25    28    1
     6    25    24    1
     7    25    26    1
     8    25    27    2
     9     6    11    1
    10     6    12    1
    11    29    36    1
    12    29    37    1
    13     7     9    1
    14     7    13    1
    15     8    10    1
    16     8    14    1
    17     4     5    1
    18    28    36    1
    19    30    33    1
    20    30    38    1
    21    31    34    1
    22    31    39    1
    23    32    35    1
    24    32    40    1
    25    41    43   ar
    26    15    19    2
    27    42    43   ar
    28    16    22    2
    29    17    12    1
    30    17    19   ar
    31    17    20   ar
    32    18    19   ar
    33    18    22   ar
    34    18    23    1
    35     9    10    1
    36     9    11    1
    37    10    12    1
    38    11     5    1
    39    33    34    1
    40    33    35    1
    41    34    36    1
    42    35    37    1
    43    37    43    1
    44    20    21   ar
    45    21    22   ar
@<TRIPOS>MOLECULE
UDP-glaA
 43 45 0 0 0
SMALL
GASTEIGER

@<TRIPOS>ATOM
      1 P          21.2875   71.4828   -1.5512 P.3     1  UNL1        0.2189
      2 O          22.5276   70.7682   -2.3053 O.3     1  UNL1       -0.4371
      3 O          20.6478   70.6635   -0.4687 O.2     1  UNL1       -0.5170
      4 O          20.3107   71.9412   -2.7559 O.3     1  UNL1       -0.3112
      5 C          19.6266   70.9410   -3.4912 C.3     1  UNL1        0.1811
      6 O          17.8595   71.8631   -4.8333 O.3     1  UNL1       -0.3308
      7 O          15.9686   70.5132   -2.9376 O.3     1  UNL1       -0.3794
      8 O          15.9751   68.8225   -5.0770 O.3     1  UNL1       -0.3779
      9 C          17.2383   70.0695   -3.4157 C.3     1  UNL1        0.1713
     10 C          17.1265   69.6099   -4.8541 C.3     1  UNL1        0.1895
     11 C          18.1451   71.2868   -3.5397 C.3     1  UNL1        0.1764
     12 C          17.0857   70.9299   -5.6051 C.3     1  UNL1        0.2383
     13 H          16.0971   70.8336   -2.0286 H       1  UNL1        0.2105
     14 H          16.0257   68.0549   -4.4817 H       1  UNL1        0.2106
     15 O          15.6271   70.2257   -7.9186 O.2     1  UNL1       -0.2464
     16 O          19.3588   70.5756  -10.6001 O.2     1  UNL1       -0.2670
     17 N          17.6505   70.8299   -6.9205 N.ar    1  UNL1       -0.2551
     18 N          17.4864   70.3999   -9.2522 N.ar    1  UNL1       -0.2743
     19 C          16.8315   70.4680   -8.0155 C.ar    1  UNL1        0.3323
     20 C          19.0026   71.0891   -7.1158 C.ar    1  UNL1        0.0869
     21 C          19.6121   71.0204   -8.3014 C.ar    1  UNL1        0.0795
     22 C          18.8283   70.6483   -9.4959 C.ar    1  UNL1        0.2626
     23 H          16.9174   70.1409  -10.0536 H       1  UNL1        0.1734
     24 O          21.9259   72.8813   -1.0492 O.3     1  UNL1       -0.2703
     25 P          21.3186   74.0469   -0.1085 P.3     1  UNL1        0.2208
     26 O          19.7209   73.8830   -0.2993 O.3     1  UNL1       -0.4371
     27 O          21.8418   75.4210   -0.4150 O.2     1  UNL1       -0.5170
     28 O          21.6035   73.5460    1.3988 O.3     1  UNL1       -0.2858
     29 O          23.3722   74.8242    2.3138 O.3     1  UNL1       -0.3226
     30 O          22.5425   72.1565    5.3918 O.3     1  UNL1       -0.3794
     31 O          22.5567   71.2590    2.6169 O.3     1  UNL1       -0.3775
     32 O          24.1122   74.4044    5.0551 O.3     1  UNL1       -0.3792
     33 C          22.2967   73.0125    4.2795 C.3     1  UNL1        0.1718
     34 C          23.0610   72.5192    3.0463 C.3     1  UNL1        0.1968
     35 C          22.7429   74.4323    4.6391 C.3     1  UNL1        0.1723
     36 C          22.9413   73.5251    1.8947 C.3     1  UNL1        0.2706
     37 C          22.6200   75.3348    3.4133 C.3     1  UNL1        0.1830
     38 H          22.0422   72.5074    6.1482 H       1  UNL1        0.2105
     39 H          23.0631   70.9927    1.8311 H       1  UNL1        0.2106
     40 H          24.6708   74.2741    4.2702 H       1  UNL1        0.2106
     41 O          24.4655   76.7791    3.3037 O.co2   1  UNL1       -0.5466
     42 O          22.5353   77.6252    4.1728 O.co2   1  UNL1       -0.5466
     43 C          23.1670   76.7006    3.6823 C.2     1  UNL1        0.0799
@<TRIPOS>UNITY_ATOM_ATTR
41 1
charge -1
@<TRIPOS>BOND
     1     1     4    1
     2     1    24    1
     3     1     2    1
     4     1     3    2
     5    25    28    1
     6    25    24    1
     7    25    26    1
     8    25    27    2
     9     6    11    1
    10     6    12    1
    11    29    36    1
    12    29    37    1
    13     7     9    1
    14     7    13    1
    15     8    10    1
    16     8    14    1
    17     4     5    1
    18    28    36    1
    19    30    33    1
    20    30    38    1
    21    31    34    1
    22    31    39    1
    23    32    35    1
    24    32    40    1
    25    41    43   ar
    26    15    19    2
    27    42    43   ar
    28    16    22    2
    29    17    12    1
    30    17    19   ar
    31    17    20   ar
    32    18    19   ar
    33    18    22   ar
    34    18    23    1
    35     9    10    1
    36     9    11    1
    37    10    12    1
    38    11     5    1
    39    33    34    1
    40    33    35    1
    41    34    36    1
    42    35    37    1
    43    37    43    1
    44    20    21   ar
    45    21    22   ar
@<TRIPOS>MOLECULE
UDP-glaA
 43 45 0 0 0
SMALL
GASTEIGER

@<TRIPOS>ATOM
      1 P          23.5881   72.4421   -3.3725 P.3     1  UNL1        0.2189
      2 O          24.1491   70.9359   -3.1881 O.3     1  UNL1       -0.4371
      3 O          24.6254   73.4639   -3.7356 O.2     1  UNL1       -0.5170
      4 O          22.7720   72.7241   -2.0050 O.3     1  UNL1       -0.3112
      5 C          23.4973   72.8206   -0.7909 C.3     1  UNL1        0.1811
      6 O          24.5671   71.2966    0.7280 O.3     1  UNL1       -0.3308
      7 O          21.8279   70.2001    1.2624 O.3     1  UNL1       -0.3794
      8 O          22.2593   71.8045    3.4247 O.3     1  UNL1       -0.3779
      9 C          22.2279   71.5464    1.0074 C.3     1  UNL1        0.1713
     10 C          22.9243   72.1261    2.2205 C.3     1  UNL1        0.1895
     11 C          23.3512   71.5160   -0.0206 C.3     1  UNL1        0.1764
     12 C          24.3017   71.4922    2.1268 C.3     1  UNL1        0.2383
     13 H          21.4229   69.8587    0.4469 H       1  UNL1        0.2105
     14 H          21.3527   72.1509    3.3599 H       1  UNL1        0.2106
     15 O          27.0014   70.7177    2.4223 O.2     1  UNL1       -0.2464
     16 O          28.1518   74.7735    4.2839 O.2     1  UNL1       -0.2670
     17 N          25.3279   72.3258    2.6849 N.ar    1  UNL1       -0.2551
     18 N          27.5723   72.7376    3.3496 N.ar    1  UNL1       -0.2743
     19 C          26.6527   71.8411    2.7896 C.ar    1  UNL1        0.3323
     20 C          25.0174   73.6087    3.1219 C.ar    1  UNL1        0.0869
     21 C          25.9057   74.4516    3.6532 C.ar    1  UNL1        0.0795
     22 C          27.3109   74.0228    3.7989 C.ar    1  UNL1        0.2626
     23 H          28.5308   72.4104    3.4352 H       1  UNL1        0.1734
     24 O          22.4112   72.2590   -4.4664 O.3     1  UNL1       -0.2703
     25 P          22.0266   73.1380   -5.7672 P.3     1  UNL1        0.2208
     26 O          23.1244   72.6793   -6.8629 O.3     1  UNL1       -0.4371
     27 O          21.9800   74.6184   -5.5183 O.2     1  UNL1       -0.5170
     28 O          20.6374   72.5062   -6.2916 O.3     1  UNL1       -0.2858
     29 O          19.6734   70.3748   -5.9346 O.3     1  UNL1       -0.3226
     30 O          18.4210   71.2612   -9.7979 O.3     1  UNL1       -0.3794
     31 O          21.1346   71.8956   -8.9378 O.3     1  UNL1       -0.3775
     32 O          17.8894   69.3108   -7.9155 O.3     1  UNL1       -0.3792
     33 C          18.7906   71.4896   -8.4408 C.3     1  UNL1        0.1718
     34 C          20.2432   71.0632   -8.2035 C.3     1  UNL1        0.1968
     35 C          17.8544   70.6892   -7.5312 C.3     1  UNL1        0.1723
     36 C          20.5963   71.1435   -6.7131 C.3     1  UNL1        0.2706
     37 C          18.3218   70.8074   -6.0822 C.3     1  UNL1        0.1830
     38 H          17.4959   71.5425   -9.9013 H       1  UNL1        0.2105
     39 H          22.0395   71.5947   -8.7492 H       1  UNL1        0.2106
     40 H          18.7340   68.9296   -7.6214 H       1  UNL1        0.2106
     41 O          18.2070   69.6473   -4.0464 O.co2   1  UNL1       -0.5466
     42 O          16.3812   69.5394   -5.4071 O.co2   1  UNL1       -0.5466
     43 C          17.5135   69.9368   -5.1737 C.2     1  UNL1        0.0799
@<TRIPOS>UNITY_ATOM_ATTR
41 1
charge -1
@<TRIPOS>BOND
     1     1     4    1
     2     1    24    1
     3     1     2    1
     4     1     3    2
     5    25    28    1
     6    25    24    1
     7    25    26    1
     8    25    27    2
     9     6    11    1
    10     6    12    1
    11    29    36    1
    12    29    37    1
    13     7     9    1
    14     7    13    1
    15     8    10    1
    16     8    14    1
    17     4     5    1
    18    28    36    1
    19    30    33    1
    20    30    38    1
    21    31    34    1
    22    31    39    1
    23    32    35    1
    24    32    40    1
    25    41    43   ar
    26    15    19    2
    27    42    43   ar
    28    16    22    2
    29    17    12    1
    30    17    19   ar
    31    17    20   ar
    32    18    19   ar
    33    18    22   ar
    34    18    23    1
    35     9    10    1
    36     9    11    1
    37    10    12    1
    38    11     5    1
    39    33    34    1
    40    33    35    1
    41    34    36    1
    42    35    37    1
    43    37    43    1
    44    20    21   ar
    45    21    22   ar
@<TRIPOS>MOLECULE
UDP-glaA
 43 45 0 0 0
SMALL
GASTEIGER

@<TRIPOS>ATOM
      1 P          22.8044   71.4715   -2.2076 P.3     1  UNL1        0.2189
      2 O          22.3573   72.7138   -3.1425 O.3     1  UNL1       -0.4371
      3 O          24.1132   70.8383   -2.5796 O.2     1  UNL1       -0.5170
      4 O          21.5192   70.4899   -2.2228 O.3     1  UNL1       -0.3112
      5 C          20.7815   70.3583   -3.4261 C.3     1  UNL1        0.1811
      6 O          18.9228   71.5442   -4.3817 O.3     1  UNL1       -0.3308
      7 O          17.2465   70.2500   -2.2589 O.3     1  UNL1       -0.3794
      8 O          16.7050   68.7279   -4.4557 O.3     1  UNL1       -0.3779
      9 C          18.3605   69.7207   -2.9777 C.3     1  UNL1        0.1713
     10 C          17.9563   69.3808   -4.3967 C.3     1  UNL1        0.1895
     11 C          19.3599   70.8496   -3.1927 C.3     1  UNL1        0.1764
     12 C          17.9321   70.7499   -5.0547 C.3     1  UNL1        0.2383
     13 H          17.5618   70.4889   -1.3706 H       1  UNL1        0.2105
     14 H          16.7723   67.9175   -3.9219 H       1  UNL1        0.2106
     15 O          20.5558   70.5962   -6.0883 O.2     1  UNL1       -0.2464
     16 O          19.0347   70.5347  -10.4381 O.2     1  UNL1       -0.2670
     17 N          18.2507   70.6919   -6.4528 N.ar    1  UNL1       -0.2551
     18 N          19.7966   70.5662   -8.2537 N.ar    1  UNL1       -0.2743
     19 C          19.6011   70.6174   -6.8672 C.ar    1  UNL1        0.3323
     20 C          17.2306   70.7094   -7.3975 C.ar    1  UNL1        0.0869
     21 C          17.4333   70.6595   -8.7159 C.ar    1  UNL1        0.0795
     22 C          18.8144   70.5814   -9.2318 C.ar    1  UNL1        0.2626
     23 H          20.7596   70.5129   -8.5746 H       1  UNL1        0.1734
     24 O          22.7608   72.1037   -0.7198 O.3     1  UNL1       -0.2703
     25 P          22.6603   71.3965    0.7302 P.3     1  UNL1        0.2208
     26 O          24.1907   70.9798    1.0467 O.3     1  UNL1       -0.4371
     27 O          21.6820   70.2587    0.7940 O.2     1  UNL1       -0.5170
     28 O          22.3459   72.6042    1.7532 O.3     1  UNL1       -0.2858
     29 O          21.5206   72.6959    3.9691 O.3     1  UNL1       -0.3226
     30 O          19.6728   75.9803    2.2148 O.3     1  UNL1       -0.3794
     31 O          19.9188   73.4656    0.7582 O.3     1  UNL1       -0.3775
     32 O          19.9326   74.9506    4.7648 O.3     1  UNL1       -0.3792
     33 C          20.6854   75.0109    2.4703 C.3     1  UNL1        0.1718
     34 C          20.1698   73.6032    2.1529 C.3     1  UNL1        0.1968
     35 C          21.0951   75.0991    3.9429 C.3     1  UNL1        0.1723
     36 C          21.1884   72.5413    2.5853 C.3     1  UNL1        0.2706
     37 C          22.0756   73.9751    4.2710 C.3     1  UNL1        0.1830
     38 H          20.0415   76.8537    2.4313 H       1  UNL1        0.2105
     39 H          19.6044   72.5587    0.6048 H       1  UNL1        0.2106
     40 H          19.6599   74.0176    4.7484 H       1  UNL1        0.2106
     41 O          22.6691   72.6775    6.1331 O.co2   1  UNL1       -0.5466
     42 O          22.4328   74.9207    6.4637 O.co2   1  UNL1       -0.5466
     43 C          22.4033   73.9434    5.7299 C.2     1  UNL1        0.0799
@<TRIPOS>UNITY_ATOM_ATTR
41 1
charge -1
@<TRIPOS>BOND
     1     1     4    1
     2     1    24    1
     3     1     2    1
     4     1     3    2
     5    25    28    1
     6    25    24    1
     7    25    26    1
     8    25    27    2
     9     6    11    1
    10     6    12    1
    11    29    36    1
    12    29    37    1
    13     7     9    1
    14     7    13    1
    15     8    10    1
    16     8    14    1
    17     4     5    1
    18    28    36    1
    19    30    33    1
    20    30    38    1
    21    31    34    1
    22    31    39    1
    23    32    35    1
    24    32    40    1
    25    41    43   ar
    26    15    19    2
    27    42    43   ar
    28    16    22    2
    29    17    12    1
    30    17    19   ar
    31    17    20   ar
    32    18    19   ar
    33    18    22   ar
    34    18    23    1
    35     9    10    1
    36     9    11    1
    37    10    12    1
    38    11     5    1
    39    33    34    1
    40    33    35    1
    41    34    36    1
    42    35    37    1
    43    37    43    1
    44    20    21   ar
    45    21    22   ar
@<TRIPOS>MOLECULE
UDP-glaA
 43 45 0 0 0
SMALL
GASTEIGER

@<TRIPOS>ATOM
      1 P          23.0592   71.5647   -2.4017 P.3     1  UNL1        0.2189
      2 O          23.2813   73.1333   -2.0739 O.3     1  UNL1       -0.4371
      3 O          24.1850   70.9079   -3.1455 O.2     1  UNL1       -0.5170
      4 O          21.6153   71.5192   -3.1289 O.3     1  UNL1       -0.3112
      5 C          21.5052   72.0248   -4.4486 C.3     1  UNL1        0.1811
      6 O          19.9609   70.2474   -4.9286 O.3     1  UNL1       -0.3308
      7 O          21.1283   70.2308   -7.6905 O.3     1  UNL1       -0.3794
      8 O          18.8028   71.6126   -8.0352 O.3     1  UNL1       -0.3779
      9 C          20.8888   71.3348   -6.8178 C.3     1  UNL1        0.1713
     10 C          19.4083   71.6465   -6.7593 C.3     1  UNL1        0.1895
     11 C          21.1748   70.8780   -5.3933 C.3     1  UNL1        0.1764
     12 C          18.8917   70.5542   -5.8385 C.3     1  UNL1        0.2383
     13 H          22.0821   70.0433   -7.6657 H       1  UNL1        0.2105
     14 H          19.2616   72.2630   -8.5943 H       1  UNL1        0.2106
     15 O          16.9324   68.7955   -4.8171 O.2     1  UNL1       -0.2464
     16 O          14.5234   72.2614   -2.9669 O.2     1  UNL1       -0.2670
     17 N          17.7426   70.9696   -5.0860 N.ar    1  UNL1       -0.2551
     18 N          15.7338   70.5226   -3.8969 N.ar    1  UNL1       -0.2743
     19 C          16.8179   70.0064   -4.6191 C.ar    1  UNL1        0.3323
     20 C          17.5406   72.3188   -4.8175 C.ar    1  UNL1        0.0869
     21 C          16.5022   72.7951   -4.1270 C.ar    1  UNL1        0.0795
     22 C          15.4901   71.8557   -3.6049 C.ar    1  UNL1        0.2626
     23 H          15.0559   69.8484   -3.5519 H       1  UNL1        0.1734
     24 O          22.7528   70.9301   -0.9462 O.3     1  UNL1       -0.2703
     25 P          21.8761   71.4896    0.2912 P.3     1  UNL1        0.2208
     26 O          21.5328   70.1541    1.1365 O.3     1  UNL1       -0.4371
     27 O          20.6733   72.2904   -0.1185 O.2     1  UNL1       -0.5170
     28 O          22.9315   72.2941    1.2093 O.3     1  UNL1       -0.2858
     29 O          22.1309   73.8431    2.8090 O.3     1  UNL1       -0.3226
     30 O          26.1302   74.9259    2.4737 O.3     1  UNL1       -0.3794
     31 O          24.5857   74.2095    0.1058 O.3     1  UNL1       -0.3775
     32 O          24.0040   75.5870    4.1085 O.3     1  UNL1       -0.3792
     33 C          24.9862   74.0768    2.4992 C.3     1  UNL1        0.1718
     34 C          24.0096   74.4622    1.3830 C.3     1  UNL1        0.1968
     35 C          24.3019   74.2087    3.8626 C.3     1  UNL1        0.1723
     36 C          22.7020   73.6704    1.5079 C.3     1  UNL1        0.2706
     37 C          22.9962   73.4166    3.8602 C.3     1  UNL1        0.1830
     38 H          26.7180   74.6479    3.1968 H       1  UNL1        0.2105
     39 H          23.9295   74.4590   -0.5666 H       1  UNL1        0.2106
     40 H          23.2538   75.8458    3.5470 H       1  UNL1        0.2106
     41 O          22.6136   72.7264    6.0695 O.co2   1  UNL1       -0.5466
     42 O          21.3748   74.4786    5.3000 O.co2   1  UNL1       -0.5466
     43 C          22.2295   73.6217    5.1279 C.2     1  UNL1        0.0799
@<TRIPOS>UNITY_ATOM_ATTR
41 1
charge -1
@<TRIPOS>BOND
     1     1     4    1
     2     1    24    1
     3     1     2    1
     4     1     3    2
     5    25    28    1
     6    25    24    1
     7    25    26    1
     8    25    27    2
     9     6    11    1
    10     6    12    1
    11    29    36    1
    12    29    37    1
    13     7     9    1
    14     7    13    1
    15     8    10    1
    16     8    14    1
    17     4     5    1
    18    28    36    1
    19    30    33    1
    20    30    38    1
    21    31    34    1
    22    31    39    1
    23    32    35    1
    24    32    40    1
    25    41    43   ar
    26    15    19    2
    27    42    43   ar
    28    16    22    2
    29    17    12    1
    30    17    19   ar
    31    17    20   ar
    32    18    19   ar
    33    18    22   ar
    34    18    23    1
    35     9    10    1
    36     9    11    1
    37    10    12    1
    38    11     5    1
    39    33    34    1
    40    33    35    1
    41    34    36    1
    42    35    37    1
    43    37    43    1
    44    20    21   ar
    45    21    22   ar
@<TRIPOS>MOLECULE
UDP-glaA
 43 45 0 0 0
SMALL
GASTEIGER

@<TRIPOS>ATOM
      1 P          23.5209   72.1528   -3.4981 P.3     1  UNL1        0.2189
      2 O          24.1828   70.7333   -3.0928 O.3     1  UNL1       -0.4371
      3 O          24.4560   73.1206   -4.1622 O.2     1  UNL1       -0.5170
      4 O          22.8332   72.6675   -2.1278 O.3     1  UNL1       -0.3112
      5 C          23.6077   72.6703   -0.9406 C.3     1  UNL1        0.1811
      6 O          24.5255   71.0238    0.5497 O.3     1  UNL1       -0.3308
      7 O          21.6886   70.2844    1.1795 O.3     1  UNL1       -0.3794
      8 O          22.3920   71.8225    3.3185 O.3     1  UNL1       -0.3779
      9 C          22.2475   71.5689    0.9049 C.3     1  UNL1        0.1713
     10 C          23.0519   72.0562    2.0915 C.3     1  UNL1        0.1895
     11 C          23.3229   71.3953   -0.1595 C.3     1  UNL1        0.1764
     12 C          24.3339   71.2524    1.9555 C.3     1  UNL1        0.2383
     13 H          21.2165   69.9967    0.3795 H       1  UNL1        0.2105
     14 H          21.5350   72.2812    3.2820 H       1  UNL1        0.2106
     15 O          24.3311   73.9703    2.7228 O.2     1  UNL1       -0.2464
     16 O          28.7749   73.8217    3.9351 O.2     1  UNL1       -0.2670
     17 N          25.4756   71.9493    2.4753 N.ar    1  UNL1       -0.2551
     18 N          26.5441   73.8946    3.3255 N.ar    1  UNL1       -0.2743
     19 C          25.3689   73.3144    2.8300 C.ar    1  UNL1        0.3323
     20 C          26.6850   71.2806    2.6291 C.ar    1  UNL1        0.0869
     21 C          27.7964   71.8476    3.1034 C.ar    1  UNL1        0.0795
     22 C          27.7701   73.2706    3.4961 C.ar    1  UNL1        0.2626
     23 H          26.4910   74.8756    3.5863 H       1  UNL1        0.1734
     24 O          22.2514   71.7163   -4.3998 O.3     1  UNL1       -0.2703
     25 P          21.3431   72.5647   -5.4332 P.3     1  UNL1        0.2208
     26 O          22.1792   72.4831   -6.8153 O.3     1  UNL1       -0.4371
     27 O          21.0334   73.9619   -4.9774 O.2     1  UNL1       -0.5170
     28 O          20.0432   71.6428   -5.6871 O.3     1  UNL1       -0.2858
     29 O          18.8825   71.9303   -7.7290 O.3     1  UNL1       -0.3226
     30 O          16.1584   69.7398   -5.4795 O.3     1  UNL1       -0.3794
     31 O          17.6953   71.8958   -4.2567 O.3     1  UNL1       -0.3775
     32 O          16.3780   70.5788   -8.1021 O.3     1  UNL1       -0.3792
     33 C          17.4237   70.1843   -5.9607 C.3     1  UNL1        0.1718
     34 C          17.6160   71.6748   -5.6609 C.3     1  UNL1        0.1968
     35 C          17.4928   69.9406   -7.4707 C.3     1  UNL1        0.1723
     36 C          18.8949   72.2017   -6.3236 C.3     1  UNL1        0.2706
     37 C          18.7823   70.5390   -8.0287 C.3     1  UNL1        0.1830
     38 H          16.0791   68.7944   -5.6927 H       1  UNL1        0.2105
     39 H          17.8260   72.8488   -4.1166 H       1  UNL1        0.2106
     40 H          16.5328   71.5386   -8.1056 H       1  UNL1        0.2106
     41 O          17.9438   69.5180   -9.9673 O.co2   1  UNL1       -0.5466
     42 O          19.5662   71.0955  -10.2436 O.co2   1  UNL1       -0.5466
     43 C          18.8315   70.4386   -9.5202 C.2     1  UNL1        0.0799
@<TRIPOS>UNITY_ATOM_ATTR
41 1
charge -1
@<TRIPOS>BOND
     1     1     4    1
     2     1    24    1
     3     1     2    1
     4     1     3    2
     5    25    28    1
     6    25    24    1
     7    25    26    1
     8    25    27    2
     9     6    11    1
    10     6    12    1
    11    29    36    1
    12    29    37    1
    13     7     9    1
    14     7    13    1
    15     8    10    1
    16     8    14    1
    17     4     5    1
    18    28    36    1
    19    30    33    1
    20    30    38    1
    21    31    34    1
    22    31    39    1
    23    32    35    1
    24    32    40    1
    25    41    43   ar
    26    15    19    2
    27    42    43   ar
    28    16    22    2
    29    17    12    1
    30    17    19   ar
    31    17    20   ar
    32    18    19   ar
    33    18    22   ar
    34    18    23    1
    35     9    10    1
    36     9    11    1
    37    10    12    1
    38    11     5    1
    39    33    34    1
    40    33    35    1
    41    34    36    1
    42    35    37    1
    43    37    43    1
    44    20    21   ar
    45    21    22   ar
@<TRIPOS>MOLECULE
UDP-glaA
 43 45 0 0 0
SMALL
GASTEIGER

@<TRIPOS>ATOM
      1 P          20.6844   71.2534   -1.4553 P.3     1  UNL1        0.2189
      2 O          21.5288   71.1556   -2.8318 O.3     1  UNL1       -0.4371
      3 O          21.2364   70.4483   -0.3155 O.2     1  UNL1       -0.5170
      4 O          19.1711   70.8962   -1.9002 O.3     1  UNL1       -0.3112
      5 C          18.8999   70.6923   -3.2764 C.3     1  UNL1        0.1811
      6 O          17.2290   71.4719   -4.8174 O.3     1  UNL1       -0.3308
      7 O          15.2815   69.8106   -3.2557 O.3     1  UNL1       -0.3794
      8 O          15.7835   68.2491   -5.4341 O.3     1  UNL1       -0.3779
      9 C          16.6488   69.5447   -3.5677 C.3     1  UNL1        0.1713
     10 C          16.7887   69.1527   -5.0235 C.3     1  UNL1        0.1895
     11 C          17.4071   70.8646   -3.5187 C.3     1  UNL1        0.1764
     12 C          16.6867   70.4972   -5.7236 C.3     1  UNL1        0.2383
     13 H          15.2463   70.0948   -2.3264 H       1  UNL1        0.2105
     14 H          15.8479   67.4620   -4.8663 H       1  UNL1        0.2106
     15 O          15.5267   70.7330   -8.2876 O.2     1  UNL1       -0.2464
     16 O          19.6418   70.6277  -10.3597 O.2     1  UNL1       -0.2670
     17 N          17.4311   70.5345   -6.9500 N.ar    1  UNL1       -0.2551
     18 N          17.5766   70.6799   -9.3178 N.ar    1  UNL1       -0.2743
     19 C          16.7522   70.6542   -8.1851 C.ar    1  UNL1        0.3323
     20 C          18.8188   70.4526   -6.9213 C.ar    1  UNL1        0.0869
     21 C          19.5907   70.4790   -8.0099 C.ar    1  UNL1        0.0795
     22 C          18.9605   70.6012   -9.3394 C.ar    1  UNL1        0.2626
     23 H          17.1102   70.7648  -10.2169 H       1  UNL1        0.1734
     24 O          20.6167   72.8463   -1.1842 O.3     1  UNL1       -0.2703
     25 P          19.5649   73.9642   -1.6905 P.3     1  UNL1        0.2208
     26 O          20.3255   75.3573   -1.3793 O.3     1  UNL1       -0.4371
     27 O          18.2006   73.8511   -1.0725 O.2     1  UNL1       -0.5170
     28 O          19.5802   73.8411   -3.2994 O.3     1  UNL1       -0.2858
     29 O          21.4810   74.3159   -4.6264 O.3     1  UNL1       -0.3226
     30 O          18.3764   74.7968   -7.3484 O.3     1  UNL1       -0.3794
     31 O          18.1145   75.7767   -4.6139 O.3     1  UNL1       -0.3775
     32 O          21.1360   74.7251   -7.4463 O.3     1  UNL1       -0.3792
     33 C          19.0949   74.2606   -6.2409 C.3     1  UNL1        0.1718
     34 C          19.3439   75.3468   -5.1889 C.3     1  UNL1        0.1968
     35 C          20.4290   73.6998   -6.7408 C.3     1  UNL1        0.1723
     36 C          20.2616   74.8251   -4.0763 C.3     1  UNL1        0.2706
     37 C          21.2743   73.2494   -5.5513 C.3     1  UNL1        0.1830
     38 H          18.2438   74.0769   -7.9884 H       1  UNL1        0.2105
     39 H          18.3227   76.4550   -3.9496 H       1  UNL1        0.2106
     40 H          21.4829   75.3624   -6.7992 H       1  UNL1        0.2106
     41 O          23.4861   72.7786   -4.9267 O.co2   1  UNL1       -0.5466
     42 O          22.9528   72.5251   -7.1286 O.co2   1  UNL1       -0.5466
     43 C          22.6385   72.8141   -5.9831 C.2     1  UNL1        0.0799
@<TRIPOS>UNITY_ATOM_ATTR
41 1
charge -1
@<TRIPOS>BOND
     1     1     4    1
     2     1    24    1
     3     1     2    1
     4     1     3    2
     5    25    28    1
     6    25    24    1
     7    25    26    1
     8    25    27    2
     9     6    11    1
    10     6    12    1
    11    29    36    1
    12    29    37    1
    13     7     9    1
    14     7    13    1
    15     8    10    1
    16     8    14    1
    17     4     5    1
    18    28    36    1
    19    30    33    1
    20    30    38    1
    21    31    34    1
    22    31    39    1
    23    32    35    1
    24    32    40    1
    25    41    43   ar
    26    15    19    2
    27    42    43   ar
    28    16    22    2
    29    17    12    1
    30    17    19   ar
    31    17    20   ar
    32    18    19   ar
    33    18    22   ar
    34    18    23    1
    35     9    10    1
    36     9    11    1
    37    10    12    1
    38    11     5    1
    39    33    34    1
    40    33    35    1
    41    34    36    1
    42    35    37    1
    43    37    43    1
    44    20    21   ar
    45    21    22   ar
