@<TRIPOS>MOLECULE
UD2
 46 48 0 0 0
SMALL
GASTEIGER

@<TRIPOS>ATOM
      1 P          21.6487   70.8429   -2.7045 P.3     1  UNL1        0.2189
      2 O          21.1988   69.3650   -3.1570 O.3     1  UNL1       -0.4371
      3 O          22.2186   71.5627   -3.8647 O.2     1  UNL1       -0.5170
      4 O          20.3683   71.6472   -2.1500 O.3     1  UNL1       -0.3112
      5 C          19.8417   72.8089   -2.7939 C.3     1  UNL1        0.1811
      6 C          17.7579   71.5000   -5.4171 C.3     1  UNL1        0.2383
      7 C          17.9511   70.3104   -4.4426 C.3     1  UNL1        0.1895
      8 O          16.8089   69.4519   -4.4529 O.3     1  UNL1       -0.3779
      9 C          18.0909   71.0275   -3.0775 C.3     1  UNL1        0.1713
     10 C          18.5010   72.4656   -3.4479 C.3     1  UNL1        0.1764
     11 O          18.6266   72.5199   -4.8778 O.3     1  UNL1       -0.3308
     12 O          16.8424   71.0261   -2.3831 O.3     1  UNL1       -0.3794
     13 H          16.8821   68.6923   -3.8594 H       1  UNL1        0.2106
     14 H          16.5073   70.1432   -2.1768 H       1  UNL1        0.2105
     15 N          18.1745   71.1302   -6.7716 N.ar    1  UNL1       -0.2551
     16 C          17.2568   70.7065   -7.6587 C.ar    1  UNL1        0.3323
     17 N          17.6114   70.3600   -8.9103 N.ar    1  UNL1       -0.2743
     18 C          18.9015   70.4352   -9.2956 C.ar    1  UNL1        0.2626
     19 C          19.8779   70.8806   -8.3724 C.ar    1  UNL1        0.0795
     20 C          19.4935   71.2256   -7.1255 C.ar    1  UNL1        0.0869
     21 O          16.0898   70.6339   -7.3251 O.2     1  UNL1       -0.2464
     22 O          19.2237   70.1222  -10.4282 O.2     1  UNL1       -0.2670
     23 H          16.9371   70.0554   -9.5370 H       1  UNL1        0.1734
     24 O          22.7579   70.7343   -1.5421 O.3     1  UNL1       -0.2703
     25 P          22.6940   70.4437    0.0404 P.3     1  UNL1        0.2208
     26 O          21.3613   69.6049    0.3781 O.3     1  UNL1       -0.4371
     27 O          23.8833   69.6639    0.4475 O.2     1  UNL1       -0.5170
     28 O          22.6672   71.8401    0.8417 O.3     1  UNL1       -0.2865
     29 C          21.4563   72.4963    1.2220 C.3     1  UNL1        0.2611
     30 C          21.5566   73.9870    0.8898 C.3     1  UNL1        0.1582
     31 C          22.6969   74.6070    1.7034 C.3     1  UNL1        0.1625
     32 C          22.4401   74.3601    3.1925 C.3     1  UNL1        0.1686
     33 C          22.3058   72.8545    3.4359 C.3     1  UNL1        0.1760
     34 O          22.7505   76.0136    1.4548 O.3     1  UNL1       -0.3801
     35 O          21.2336   75.0173    3.5846 O.3     1  UNL1       -0.3794
     36 O          21.2487   72.3352    2.6267 O.3     1  UNL1       -0.3263
     37 H          23.4518   76.4715    1.9381 H       1  UNL1        0.2105
     38 H          21.0080   74.9025    4.5183 H       1  UNL1        0.2105
     39 C          23.0989   74.2738   -0.9747 C.2     1  UNL1        0.2231
     40 C          23.3799   74.4437   -2.4447 C.3     1  UNL1        0.0946
     41 N          21.8291   74.1525   -0.5402 N.am    1  UNL1       -0.2994
     42 O          24.0161   74.2462   -0.1809 O.2     1  UNL1       -0.2751
     43 H          21.0954   74.1755   -1.1744 H       1  UNL1        0.1496
     44 C          21.9898   72.6029    4.9115 C.3     1  UNL1        0.1693
     45 O          22.8487   73.4032    5.7265 O.3     1  UNL1       -0.3794
     46 H          22.7039   73.2945    6.6764 H       1  UNL1        0.2105
@<TRIPOS>BOND
     1    29    30    1
     2    30    41    1
     3    30    31    1
     4    31    34    1
     5    31    32    1
     6    32    35    1
     7    32    33    1
     8    33    36    1
     9    33    44    1
    10    39    40    1
    11    39    42    2
    12    39    41   am
    13    41    43    1
    14    29    28    1
    15    34    37    1
    16    35    38    1
    17    29    36    1
    18    44    45    1
    19    45    46    1
    20    15     6    1
    21    15    16   ar
    22    16    21    2
    23    16    17   ar
    24    17    23    1
    25    17    18   ar
    26    18    19   ar
    27    19    20   ar
    28    15    20   ar
    29    18    22    2
    30     6     7    1
    31     6    11    1
    32     7     9    1
    33     7     8    1
    34     8    13    1
    35     9    10    1
    36     9    12    1
    37    10     5    1
    38    10    11    1
    39    12    14    1
    40     5     4    1
    41     4     1    1
    42     1     2    1
    43     1    24    1
    44     1     3    2
    45    24    25    1
    46    28    25    1
    47    25    26    1
    48    25    27    2
@<TRIPOS>MOLECULE
UD2
 46 48 0 0 0
SMALL
GASTEIGER

@<TRIPOS>ATOM
      1 P          22.9974   72.1989   -3.2339 P.3     1  UNL1        0.2189
      2 O          23.4420   70.6519   -3.2505 O.3     1  UNL1       -0.4371
      3 O          23.7131   72.9300   -4.3026 O.2     1  UNL1       -0.5170
      4 O          21.4097   72.3035   -3.4826 O.3     1  UNL1       -0.3112
      5 C          20.4466   71.6870   -2.6260 C.3     1  UNL1        0.1811
      6 C          18.0824   71.2895   -5.3072 C.3     1  UNL1        0.2383
      7 C          17.9653   69.9797   -4.4870 C.3     1  UNL1        0.1895
      8 O          16.6395   69.4511   -4.5565 O.3     1  UNL1       -0.3779
      9 C          18.2925   70.4635   -3.0530 C.3     1  UNL1        0.1713
     10 C          19.0597   71.7824   -3.2665 C.3     1  UNL1        0.1764
     11 O          19.1883   71.9779   -4.6838 O.3     1  UNL1       -0.3308
     12 O          17.0897   70.6972   -2.3187 O.3     1  UNL1       -0.3794
     13 H          16.5162   68.6311   -4.0594 H       1  UNL1        0.2106
     14 H          16.5381   69.9115   -2.2054 H       1  UNL1        0.2105
     15 N          18.3825   70.9945   -6.7100 N.ar    1  UNL1       -0.2551
     16 C          17.3759   70.7875   -7.5776 C.ar    1  UNL1        0.3323
     17 N          17.6225   70.5144   -8.8725 N.ar    1  UNL1       -0.2743
     18 C          18.8921   70.4458   -9.3219 C.ar    1  UNL1        0.2626
     19 C          19.9614   70.6626   -8.4198 C.ar    1  UNL1        0.0795
     20 C          19.6849   70.9388   -7.1280 C.ar    1  UNL1        0.0869
     21 O          16.2262   70.8464   -7.1865 O.2     1  UNL1       -0.2464
     22 O          19.1167   70.1991  -10.4937 O.2     1  UNL1       -0.2670
     23 H          16.8850   70.3665   -9.4844 H       1  UNL1        0.1734
     24 O          23.3598   72.8465   -1.8047 O.3     1  UNL1       -0.2703
     25 P          23.1450   74.3020   -1.1501 P.3     1  UNL1        0.2208
     26 O          24.5785   74.9682   -0.8421 O.3     1  UNL1       -0.4371
     27 O          22.3947   75.1610   -2.0922 O.2     1  UNL1       -0.5170
     28 O          22.3147   74.1561    0.2217 O.3     1  UNL1       -0.2865
     29 C          22.9068   74.3215    1.5114 C.3     1  UNL1        0.2611
     30 C          22.5178   73.1431    2.4074 C.3     1  UNL1        0.1582
     31 C          20.9972   73.1331    2.5916 C.3     1  UNL1        0.1625
     32 C          20.5557   74.4775    3.1765 C.3     1  UNL1        0.1686
     33 C          21.0204   75.6047    2.2505 C.3     1  UNL1        0.1760
     34 O          20.6318   72.0799    3.4864 O.3     1  UNL1       -0.3801
     35 O          21.1382   74.6502    4.4696 O.3     1  UNL1       -0.3794
     36 O          22.4396   75.5384    2.0971 O.3     1  UNL1       -0.3263
     37 H          19.6807   72.0144    3.6485 H       1  UNL1        0.2105
     38 H          20.9013   75.4835    4.9003 H       1  UNL1        0.2105
     39 C          22.0905   71.2084    0.9889 C.2     1  UNL1        0.2231
     40 C          22.5272   69.9198    0.3428 C.3     1  UNL1        0.0946
     41 N          22.9432   71.8896    1.7794 N.am    1  UNL1       -0.2994
     42 O          20.9704   71.6338    0.7980 O.2     1  UNL1       -0.2751
     43 H          23.8386   71.5494    1.9332 H       1  UNL1        0.1496
     44 C          20.6353   76.9549    2.8580 C.3     1  UNL1        0.1693
     45 O          19.4420   76.8075    3.6305 O.3     1  UNL1       -0.3794
     46 H          19.1384   77.6260    4.0464 H       1  UNL1        0.2105
@<TRIPOS>BOND
     1    29    30    1
     2    30    41    1
     3    30    31    1
     4    31    34    1
     5    31    32    1
     6    32    35    1
     7    32    33    1
     8    33    36    1
     9    33    44    1
    10    39    40    1
    11    39    42    2
    12    39    41   am
    13    41    43    1
    14    29    28    1
    15    34    37    1
    16    35    38    1
    17    29    36    1
    18    44    45    1
    19    45    46    1
    20    15     6    1
    21    15    16   ar
    22    16    21    2
    23    16    17   ar
    24    17    23    1
    25    17    18   ar
    26    18    19   ar
    27    19    20   ar
    28    15    20   ar
    29    18    22    2
    30     6     7    1
    31     6    11    1
    32     7     9    1
    33     7     8    1
    34     8    13    1
    35     9    10    1
    36     9    12    1
    37    10     5    1
    38    10    11    1
    39    12    14    1
    40     5     4    1
    41     4     1    1
    42     1     2    1
    43     1    24    1
    44     1     3    2
    45    24    25    1
    46    28    25    1
    47    25    26    1
    48    25    27    2
@<TRIPOS>MOLECULE
UD2
 46 48 0 0 0
SMALL
GASTEIGER

@<TRIPOS>ATOM
      1 P          22.9336   72.1357   -3.3530 P.3     1  UNL1        0.2189
      2 O          23.4579   70.6145   -3.3037 O.3     1  UNL1       -0.4371
      3 O          23.6431   72.8681   -4.4249 O.2     1  UNL1       -0.5170
      4 O          21.3510   72.1482   -3.6511 O.3     1  UNL1       -0.3112
      5 C          20.3670   71.9536   -2.6337 C.3     1  UNL1        0.1811
      6 C          18.0358   71.3185   -5.2980 C.3     1  UNL1        0.2383
      7 C          18.0293   70.0173   -4.4561 C.3     1  UNL1        0.1895
      8 O          16.7514   69.3803   -4.5113 O.3     1  UNL1       -0.3779
      9 C          18.3198   70.5501   -3.0316 C.3     1  UNL1        0.1713
     10 C          18.9751   71.9239   -3.2698 C.3     1  UNL1        0.1764
     11 O          19.0831   72.1058   -4.6906 O.3     1  UNL1       -0.3308
     12 O          17.1039   70.6962   -2.2960 O.3     1  UNL1       -0.3794
     13 H          16.6974   68.5613   -4.0005 H       1  UNL1        0.2106
     14 H          16.6192   69.8697   -2.1677 H       1  UNL1        0.2105
     15 N          18.3552   71.0260   -6.6971 N.ar    1  UNL1       -0.2551
     16 C          17.3619   70.7814   -7.5703 C.ar    1  UNL1        0.3323
     17 N          17.6263   70.5096   -8.8620 N.ar    1  UNL1       -0.2743
     18 C          18.9006   70.4803   -9.3024 C.ar    1  UNL1        0.2626
     19 C          19.9559   70.7369   -8.3943 C.ar    1  UNL1        0.0795
     20 C          19.6616   71.0108   -7.1059 C.ar    1  UNL1        0.0869
     21 O          16.2082   70.8047   -7.1872 O.2     1  UNL1       -0.2464
     22 O          19.1412   70.2348  -10.4713 O.2     1  UNL1       -0.2670
     23 H          16.8983   70.3344   -9.4780 H       1  UNL1        0.1734
     24 O          23.2179   72.8478   -1.9370 O.3     1  UNL1       -0.2703
     25 P          23.2306   74.3789   -1.4382 P.3     1  UNL1        0.2208
     26 O          24.6325   75.0621   -1.8401 O.3     1  UNL1       -0.4371
     27 O          22.1209   75.1165   -2.0809 O.2     1  UNL1       -0.5170
     28 O          23.0502   74.4237    0.1612 O.3     1  UNL1       -0.2865
     29 C          21.7957   74.2062    0.8095 C.3     1  UNL1        0.2611
     30 C          21.9546   74.4228    2.3163 C.3     1  UNL1        0.1582
     31 C          22.9480   73.3960    2.8690 C.3     1  UNL1        0.1625
     32 C          22.4491   71.9876    2.5344 C.3     1  UNL1        0.1686
     33 C          22.2712   71.8649    1.0187 C.3     1  UNL1        0.1760
     34 O          23.0469   73.5433    4.2873 O.3     1  UNL1       -0.3801
     35 O          21.1970   71.7578    3.1830 O.3     1  UNL1       -0.3794
     36 O          21.3595   72.8674    0.5651 O.3     1  UNL1       -0.3263
     37 H          23.6609   72.9237    4.7048 H       1  UNL1        0.2105
     38 H          20.8206   70.8827    3.0141 H       1  UNL1        0.2105
     39 C          23.7853   75.9928    2.6648 C.2     1  UNL1        0.2231
     40 C          24.3046   77.3832    2.9209 C.3     1  UNL1        0.0946
     41 N          22.4590   75.7755    2.5657 N.am    1  UNL1       -0.2994
     42 O          24.5612   75.0673    2.5475 O.2     1  UNL1       -0.2751
     43 H          21.8383   76.5150    2.6604 H       1  UNL1        0.1496
     44 C          21.7161   70.4799    0.6811 C.3     1  UNL1        0.1693
     45 O          22.7374   69.4979    0.8683 O.3     1  UNL1       -0.3794
     46 H          22.4554   68.5940    0.6721 H       1  UNL1        0.2105
@<TRIPOS>BOND
     1    29    30    1
     2    30    41    1
     3    30    31    1
     4    31    34    1
     5    31    32    1
     6    32    35    1
     7    32    33    1
     8    33    36    1
     9    33    44    1
    10    39    40    1
    11    39    42    2
    12    39    41   am
    13    41    43    1
    14    29    28    1
    15    34    37    1
    16    35    38    1
    17    29    36    1
    18    44    45    1
    19    45    46    1
    20    15     6    1
    21    15    16   ar
    22    16    21    2
    23    16    17   ar
    24    17    23    1
    25    17    18   ar
    26    18    19   ar
    27    19    20   ar
    28    15    20   ar
    29    18    22    2
    30     6     7    1
    31     6    11    1
    32     7     9    1
    33     7     8    1
    34     8    13    1
    35     9    10    1
    36     9    12    1
    37    10     5    1
    38    10    11    1
    39    12    14    1
    40     5     4    1
    41     4     1    1
    42     1     2    1
    43     1    24    1
    44     1     3    2
    45    24    25    1
    46    28    25    1
    47    25    26    1
    48    25    27    2
@<TRIPOS>MOLECULE
UD2
 46 48 0 0 0
SMALL
GASTEIGER

@<TRIPOS>ATOM
      1 P          21.9435   70.7923   -0.4031 P.3     1  UNL1        0.2189
      2 O          21.6884   69.5520    0.5908 O.3     1  UNL1       -0.4371
      3 O          23.1016   70.4965   -1.2750 O.2     1  UNL1       -0.5170
      4 O          20.6349   71.0301   -1.3111 O.3     1  UNL1       -0.3112
      5 C          20.7013   71.4500   -2.6752 C.3     1  UNL1        0.1811
      6 C          18.2064   71.1374   -5.2471 C.3     1  UNL1        0.2383
      7 C          18.1290   69.8017   -4.4646 C.3     1  UNL1        0.1895
      8 O          16.8010   69.2747   -4.4852 O.3     1  UNL1       -0.3779
      9 C          18.5276   70.2393   -3.0339 C.3     1  UNL1        0.1713
     10 C          19.2843   71.5650   -3.2427 C.3     1  UNL1        0.1764
     11 O          19.3425   71.8061   -4.6576 O.3     1  UNL1       -0.3308
     12 O          17.3629   70.4484   -2.2335 O.3     1  UNL1       -0.3794
     13 H          16.7017   68.4391   -4.0093 H       1  UNL1        0.2106
     14 H          16.8169   69.6590   -2.1184 H       1  UNL1        0.2105
     15 N          18.4362   70.8879   -6.6718 N.ar    1  UNL1       -0.2551
     16 C          17.3870   70.7335   -7.4991 C.ar    1  UNL1        0.3323
     17 N          17.5687   70.5031   -8.8129 N.ar    1  UNL1       -0.2743
     18 C          18.8149   70.4251   -9.3223 C.ar    1  UNL1        0.2626
     19 C          19.9284   70.5867   -8.4632 C.ar    1  UNL1        0.0795
     20 C          19.7168   70.8209   -7.1510 C.ar    1  UNL1        0.0869
     21 O          16.2577   70.8016   -7.0536 O.2     1  UNL1       -0.2464
     22 O          18.9807   70.2170  -10.5113 O.2     1  UNL1       -0.2670
     23 H          16.8012   70.3929   -9.3951 H       1  UNL1        0.1734
     24 O          22.2456   72.1183    0.4594 O.3     1  UNL1       -0.2703
     25 P          21.5565   72.7946    1.7481 P.3     1  UNL1        0.2208
     26 O          20.3585   73.7595    1.2710 O.3     1  UNL1       -0.4371
     27 O          21.0161   71.7376    2.6307 O.2     1  UNL1       -0.5170
     28 O          22.6530   73.6571    2.5522 O.3     1  UNL1       -0.2865
     29 C          22.9626   73.4333    3.9289 C.3     1  UNL1        0.2611
     30 C          22.0826   74.3301    4.8031 C.3     1  UNL1        0.1582
     31 C          22.3925   75.7970    4.4892 C.3     1  UNL1        0.1625
     32 C          23.8854   76.0517    4.7143 C.3     1  UNL1        0.1686
     33 C          24.6961   75.0884    3.8433 C.3     1  UNL1        0.1760
     34 O          21.6283   76.6416    5.3528 O.3     1  UNL1       -0.3801
     35 O          24.2046   75.8361    6.0902 O.3     1  UNL1       -0.3794
     36 O          24.3379   73.7427    4.1638 O.3     1  UNL1       -0.3263
     37 H          21.7746   77.5865    5.2085 H       1  UNL1        0.2105
     38 H          25.1368   75.9792    6.3055 H       1  UNL1        0.2105
     39 C          19.7856   73.9690    5.5320 C.2     1  UNL1        0.2231
     40 C          18.3346   73.6879    5.2419 C.3     1  UNL1        0.0946
     41 N          20.6714   74.0563    4.5201 N.am    1  UNL1       -0.2994
     42 O          20.1578   74.1170    6.6773 O.2     1  UNL1       -0.2751
     43 H          20.3745   73.9371    3.6043 H       1  UNL1        0.1496
     44 C          26.1887   75.2958    4.1070 C.3     1  UNL1        0.1693
     45 O          26.3588   76.1947    5.2049 O.3     1  UNL1       -0.3794
     46 H          27.2825   76.3728    5.4287 H       1  UNL1        0.2105
@<TRIPOS>BOND
     1    29    30    1
     2    30    41    1
     3    30    31    1
     4    31    34    1
     5    31    32    1
     6    32    35    1
     7    32    33    1
     8    33    36    1
     9    33    44    1
    10    39    40    1
    11    39    42    2
    12    39    41   am
    13    41    43    1
    14    29    28    1
    15    34    37    1
    16    35    38    1
    17    29    36    1
    18    44    45    1
    19    45    46    1
    20    15     6    1
    21    15    16   ar
    22    16    21    2
    23    16    17   ar
    24    17    23    1
    25    17    18   ar
    26    18    19   ar
    27    19    20   ar
    28    15    20   ar
    29    18    22    2
    30     6     7    1
    31     6    11    1
    32     7     9    1
    33     7     8    1
    34     8    13    1
    35     9    10    1
    36     9    12    1
    37    10     5    1
    38    10    11    1
    39    12    14    1
    40     5     4    1
    41     4     1    1
    42     1     2    1
    43     1    24    1
    44     1     3    2
    45    24    25    1
    46    28    25    1
    47    25    26    1
    48    25    27    2
@<TRIPOS>MOLECULE
UD2
 46 48 0 0 0
SMALL
GASTEIGER

@<TRIPOS>ATOM
      1 P          22.1514   70.4008   -0.1657 P.3     1  UNL1        0.2189
      2 O          21.2290   70.8552    1.0729 O.3     1  UNL1       -0.4371
      3 O          23.1383   69.3994    0.2947 O.2     1  UNL1       -0.5170
      4 O          21.2264   69.7540   -1.3145 O.3     1  UNL1       -0.3112
      5 C          21.2604   70.1876   -2.6755 C.3     1  UNL1        0.1811
      6 C          18.6188   70.8524   -5.0242 C.3     1  UNL1        0.2383
      7 C          18.2938   69.4459   -4.4601 C.3     1  UNL1        0.1895
      8 O          16.8835   69.2170   -4.4420 O.3     1  UNL1       -0.3779
      9 C          18.8575   69.5346   -3.0207 C.3     1  UNL1        0.1713
     10 C          19.8739   70.6906   -3.0849 C.3     1  UNL1        0.1764
     11 O          19.9049   71.1581   -4.4429 O.3     1  UNL1       -0.3308
     12 O          17.8134   69.8370   -2.0938 O.3     1  UNL1       -0.3794
     13 H          16.6299   68.3499   -4.0977 H       1  UNL1        0.2106
     14 H          17.1148   69.1699   -2.0558 H       1  UNL1        0.2105
     15 N          18.7088   70.8139   -6.4856 N.ar    1  UNL1       -0.2551
     16 C          17.5840   70.8226   -7.2229 C.ar    1  UNL1        0.3323
     17 N          17.6369   70.7877   -8.5676 N.ar    1  UNL1       -0.2743
     18 C          18.8277   70.7449   -9.1992 C.ar    1  UNL1        0.2626
     19 C          20.0196   70.7362   -8.4354 C.ar    1  UNL1        0.0795
     20 C          19.9370   70.7762   -7.0889 C.ar    1  UNL1        0.0869
     21 O          16.5034   70.8613   -6.6670 O.2     1  UNL1       -0.2464
     22 O          18.8769   70.7136  -10.4162 O.2     1  UNL1       -0.2670
     23 H          16.8163   70.7934   -9.0841 H       1  UNL1        0.1734
     24 O          22.9241   71.6833   -0.7586 O.3     1  UNL1       -0.2703
     25 P          22.7354   73.2744   -0.5990 P.3     1  UNL1        0.2208
     26 O          23.8706   74.0370   -1.4496 O.3     1  UNL1       -0.4371
     27 O          21.3992   73.6656   -1.0988 O.2     1  UNL1       -0.5170
     28 O          22.8670   73.6772    0.9544 O.3     1  UNL1       -0.2865
     29 C          21.8577   74.4029    1.6587 C.3     1  UNL1        0.2611
     30 C          22.1869   75.8974    1.6277 C.3     1  UNL1        0.1582
     31 C          23.5178   76.1332    2.3485 C.3     1  UNL1        0.1625
     32 C          23.4156   75.5908    3.7767 C.3     1  UNL1        0.1686
     33 C          23.0390   74.1078    3.7248 C.3     1  UNL1        0.1760
     34 O          23.7970   77.5345    2.3887 O.3     1  UNL1       -0.3801
     35 O          22.4123   76.3142    4.4917 O.3     1  UNL1       -0.3794
     36 O          21.8082   73.9551    3.0149 O.3     1  UNL1       -0.3263
     37 H          24.6274   77.7572    2.8313 H       1  UNL1        0.2105
     38 H          22.2926   76.0224    5.4064 H       1  UNL1        0.2105
     39 C          21.7537   77.5203   -0.1375 C.2     1  UNL1        0.2231
     40 C          21.8667   77.9818   -1.5668 C.3     1  UNL1        0.0946
     41 N          22.2971   76.3454    0.2371 N.am    1  UNL1       -0.2994
     42 O          21.1731   78.2065    0.6775 O.2     1  UNL1       -0.2751
     43 H          22.7606   75.7961   -0.4144 H       1  UNL1        0.1496
     44 C          22.8764   73.5729    5.1489 C.3     1  UNL1        0.1693
     45 O          21.9845   72.4563    5.1402 O.3     1  UNL1       -0.3794
     46 H          21.8343   72.0655    6.0118 H       1  UNL1        0.2105
@<TRIPOS>BOND
     1    29    30    1
     2    30    41    1
     3    30    31    1
     4    31    34    1
     5    31    32    1
     6    32    35    1
     7    32    33    1
     8    33    36    1
     9    33    44    1
    10    39    40    1
    11    39    42    2
    12    39    41   am
    13    41    43    1
    14    29    28    1
    15    34    37    1
    16    35    38    1
    17    29    36    1
    18    44    45    1
    19    45    46    1
    20    15     6    1
    21    15    16   ar
    22    16    21    2
    23    16    17   ar
    24    17    23    1
    25    17    18   ar
    26    18    19   ar
    27    19    20   ar
    28    15    20   ar
    29    18    22    2
    30     6     7    1
    31     6    11    1
    32     7     9    1
    33     7     8    1
    34     8    13    1
    35     9    10    1
    36     9    12    1
    37    10     5    1
    38    10    11    1
    39    12    14    1
    40     5     4    1
    41     4     1    1
    42     1     2    1
    43     1    24    1
    44     1     3    2
    45    24    25    1
    46    28    25    1
    47    25    26    1
    48    25    27    2
@<TRIPOS>MOLECULE
UD2
 46 48 0 0 0
SMALL
GASTEIGER

@<TRIPOS>ATOM
      1 P          21.7828   70.7653   -0.6681 P.3     1  UNL1        0.2189
      2 O          21.5116   69.5999    0.4088 O.3     1  UNL1       -0.4371
      3 O          22.9187   70.3820   -1.5351 O.2     1  UNL1       -0.5170
      4 O          20.4664   70.9784   -1.5710 O.3     1  UNL1       -0.3112
      5 C          20.3715   71.9840   -2.5815 C.3     1  UNL1        0.1811
      6 C          18.0312   71.3341   -5.2343 C.3     1  UNL1        0.2383
      7 C          18.0387   70.0321   -4.3935 C.3     1  UNL1        0.1895
      8 O          16.7652   69.3858   -4.4427 O.3     1  UNL1       -0.3779
      9 C          18.3327   70.5657   -2.9701 C.3     1  UNL1        0.1713
     10 C          18.9765   71.9446   -3.2104 C.3     1  UNL1        0.1764
     11 O          19.0758   72.1285   -4.6316 O.3     1  UNL1       -0.3308
     12 O          17.1196   70.7022   -2.2281 O.3     1  UNL1       -0.3794
     13 H          16.7200   68.5660   -3.9324 H       1  UNL1        0.2106
     14 H          16.6417   69.8721   -2.0979 H       1  UNL1        0.2105
     15 N          18.3454   71.0452   -6.6353 N.ar    1  UNL1       -0.2551
     16 C          17.3481   70.8224   -7.5097 C.ar    1  UNL1        0.3323
     17 N          17.6077   70.5545   -8.8031 N.ar    1  UNL1       -0.2743
     18 C          18.8812   70.5071   -9.2441 C.ar    1  UNL1        0.2626
     19 C          19.9408   70.7406   -8.3348 C.ar    1  UNL1        0.0795
     20 C          19.6513   71.0112   -7.0446 C.ar    1  UNL1        0.0869
     21 O          16.1950   70.8622   -7.1261 O.2     1  UNL1       -0.2464
     22 O          19.1175   70.2651  -10.4146 O.2     1  UNL1       -0.2670
     23 H          16.8768   70.3951   -9.4200 H       1  UNL1        0.1734
     24 O          22.1329   72.1361    0.1010 O.3     1  UNL1       -0.2703
     25 P          21.6088   72.8200    1.4614 P.3     1  UNL1        0.2208
     26 O          20.5089   73.9421    1.1082 O.3     1  UNL1       -0.4371
     27 O          20.9993   71.7886    2.3292 O.2     1  UNL1       -0.5170
     28 O          22.8473   73.5047    2.2294 O.3     1  UNL1       -0.2865
     29 C          22.7900   74.8223    2.7791 C.3     1  UNL1        0.2611
     30 C          24.1845   75.2401    3.2518 C.3     1  UNL1        0.1582
     31 C          24.6426   74.2916    4.3640 C.3     1  UNL1        0.1625
     32 C          23.6137   74.3168    5.4976 C.3     1  UNL1        0.1686
     33 C          22.2409   73.9344    4.9382 C.3     1  UNL1        0.1760
     34 O          25.9126   74.7185    4.8621 O.3     1  UNL1       -0.3801
     35 O          23.5528   75.6295    6.0583 O.3     1  UNL1       -0.3794
     36 O          21.8882   74.8366    3.8877 O.3     1  UNL1       -0.3263
     37 H          26.2644   74.1614    5.5701 H       1  UNL1        0.2105
     38 H          22.9188   75.7191    6.7836 H       1  UNL1        0.2105
     39 C          26.0611   76.1235    1.9729 C.2     1  UNL1        0.2231
     40 C          27.0270   76.0504    0.8195 C.3     1  UNL1        0.0946
     41 N          25.1235   75.1683    2.1294 N.am    1  UNL1       -0.2994
     42 O          26.1268   77.0429    2.7620 O.2     1  UNL1       -0.2751
     43 H          25.0700   74.4336    1.4983 H       1  UNL1        0.1496
     44 C          21.1958   74.0151    6.0525 C.3     1  UNL1        0.1693
     45 O          20.0012   73.3508    5.6353 O.3     1  UNL1       -0.3794
     46 H          19.2934   73.3626    6.2940 H       1  UNL1        0.2105
@<TRIPOS>BOND
     1    29    30    1
     2    30    41    1
     3    30    31    1
     4    31    34    1
     5    31    32    1
     6    32    35    1
     7    32    33    1
     8    33    36    1
     9    33    44    1
    10    39    40    1
    11    39    42    2
    12    39    41   am
    13    41    43    1
    14    29    28    1
    15    34    37    1
    16    35    38    1
    17    29    36    1
    18    44    45    1
    19    45    46    1
    20    15     6    1
    21    15    16   ar
    22    16    21    2
    23    16    17   ar
    24    17    23    1
    25    17    18   ar
    26    18    19   ar
    27    19    20   ar
    28    15    20   ar
    29    18    22    2
    30     6     7    1
    31     6    11    1
    32     7     9    1
    33     7     8    1
    34     8    13    1
    35     9    10    1
    36     9    12    1
    37    10     5    1
    38    10    11    1
    39    12    14    1
    40     5     4    1
    41     4     1    1
    42     1     2    1
    43     1    24    1
    44     1     3    2
    45    24    25    1
    46    28    25    1
    47    25    26    1
    48    25    27    2
@<TRIPOS>MOLECULE
UD2
 46 48 0 0 0
SMALL
GASTEIGER

@<TRIPOS>ATOM
      1 P          22.8255   71.8671   -2.9877 P.3     1  UNL1        0.2189
      2 O          23.8249   73.1023   -3.2461 O.3     1  UNL1       -0.4371
      3 O          23.5987   70.6064   -2.9470 O.2     1  UNL1       -0.5170
      4 O          22.0659   72.0765   -1.5831 O.3     1  UNL1       -0.3112
      5 C          22.7490   72.4017   -0.3710 C.3     1  UNL1        0.1811
      6 C          21.6224   74.8728    1.9871 C.3     1  UNL1        0.2383
      7 C          23.1684   74.9137    2.0885 C.3     1  UNL1        0.1895
      8 O          23.6227   76.2250    2.4287 O.3     1  UNL1       -0.3779
      9 C          23.5988   74.5359    0.6500 C.3     1  UNL1        0.1713
     10 C          22.3674   73.8186    0.0646 C.3     1  UNL1        0.1764
     11 O          21.3737   73.7605    1.1003 O.3     1  UNL1       -0.3308
     12 O          23.9000   75.7104   -0.1053 O.3     1  UNL1       -0.3794
     13 H          24.5835   76.3013    2.5046 H       1  UNL1        0.2106
     14 H          24.6303   76.2328    0.2528 H       1  UNL1        0.2105
     15 N          21.0255   74.6283    3.3020 N.ar    1  UNL1       -0.2551
     16 C          21.2530   73.4613    3.9306 C.ar    1  UNL1        0.3323
     17 N          20.7171   73.2095    5.1395 N.ar    1  UNL1       -0.2743
     18 C          19.9400   74.1318    5.7429 C.ar    1  UNL1        0.2626
     19 C          19.6930   75.3651    5.0931 C.ar    1  UNL1        0.0795
     20 C          20.2466   75.5923    3.8834 C.ar    1  UNL1        0.0869
     21 O          21.9519   72.6205    3.3985 O.2     1  UNL1       -0.2464
     22 O          19.4548   73.9054    6.8373 O.2     1  UNL1       -0.2670
     23 H          20.8903   72.3624    5.5783 H       1  UNL1        0.1734
     24 O          21.7424   71.7948   -4.1772 O.3     1  UNL1       -0.2703
     25 P          21.3617   72.7671   -5.4030 P.3     1  UNL1        0.2208
     26 O          21.0586   74.2455   -4.8405 O.3     1  UNL1       -0.4371
     27 O          22.4912   72.8247   -6.3565 O.2     1  UNL1       -0.5170
     28 O          20.0545   72.1992   -6.1523 O.3     1  UNL1       -0.2865
     29 C          18.8504   72.9545   -6.2970 C.3     1  UNL1        0.2611
     30 C          17.6614   72.1175   -5.8191 C.3     1  UNL1        0.1582
     31 C          17.5377   70.8714   -6.7014 C.3     1  UNL1        0.1625
     32 C          17.3919   71.3059   -8.1623 C.3     1  UNL1        0.1686
     33 C          18.5916   72.1743   -8.5500 C.3     1  UNL1        0.1760
     34 O          16.3860   70.1213   -6.3089 O.3     1  UNL1       -0.3801
     35 O          16.1870   72.0576   -8.3191 O.3     1  UNL1       -0.3794
     36 O          18.6671   73.2991   -7.6718 O.3     1  UNL1       -0.3263
     37 H          16.2463   69.3163   -6.8264 H       1  UNL1        0.2105
     38 H          16.0301   72.3666   -9.2223 H       1  UNL1        0.2105
     39 C          18.4757   70.5380   -4.1519 C.2     1  UNL1        0.2231
     40 C          18.6967   70.1213   -2.7215 C.3     1  UNL1        0.0946
     41 N          17.8758   71.7128   -4.4274 N.am    1  UNL1       -0.2994
     42 O          18.8378   69.8157   -5.0571 O.2     1  UNL1       -0.2751
     43 H          17.5853   72.2901   -3.7040 H       1  UNL1        0.1496
     44 C          18.4238   72.6618   -9.9904 C.3     1  UNL1        0.1693
     45 O          17.5754   73.8117  -10.0090 O.3     1  UNL1       -0.3794
     46 H          17.4244   74.1755  -10.8922 H       1  UNL1        0.2105
@<TRIPOS>BOND
     1    29    30    1
     2    30    41    1
     3    30    31    1
     4    31    34    1
     5    31    32    1
     6    32    35    1
     7    32    33    1
     8    33    36    1
     9    33    44    1
    10    39    40    1
    11    39    42    2
    12    39    41   am
    13    41    43    1
    14    29    28    1
    15    34    37    1
    16    35    38    1
    17    29    36    1
    18    44    45    1
    19    45    46    1
    20    15     6    1
    21    15    16   ar
    22    16    21    2
    23    16    17   ar
    24    17    23    1
    25    17    18   ar
    26    18    19   ar
    27    19    20   ar
    28    15    20   ar
    29    18    22    2
    30     6     7    1
    31     6    11    1
    32     7     9    1
    33     7     8    1
    34     8    13    1
    35     9    10    1
    36     9    12    1
    37    10     5    1
    38    10    11    1
    39    12    14    1
    40     5     4    1
    41     4     1    1
    42     1     2    1
    43     1    24    1
    44     1     3    2
    45    24    25    1
    46    28    25    1
    47    25    26    1
    48    25    27    2
@<TRIPOS>MOLECULE
UD2
 46 48 0 0 0
SMALL
GASTEIGER

@<TRIPOS>ATOM
      1 P          21.8452   70.4332   -0.2104 P.3     1  UNL1        0.2189
      2 O          22.2605   69.0446    0.4901 O.3     1  UNL1       -0.4371
      3 O          23.0348   71.0408   -0.8464 O.2     1  UNL1       -0.5170
      4 O          20.7216   70.1543   -1.3300 O.3     1  UNL1       -0.3112
      5 C          20.8559   70.5774   -2.6881 C.3     1  UNL1        0.1811
      6 C          18.3543   70.9628   -5.2435 C.3     1  UNL1        0.2383
      7 C          18.0202   69.6062   -4.5725 C.3     1  UNL1        0.1895
      8 O          16.6159   69.3465   -4.6187 O.3     1  UNL1       -0.3779
      9 C          18.4914   69.8389   -3.1161 C.3     1  UNL1        0.1713
     10 C          19.4888   71.0080   -3.2253 C.3     1  UNL1        0.1764
     11 O          19.5960   71.3505   -4.6162 O.3     1  UNL1       -0.3308
     12 O          17.3862   70.1996   -2.2859 O.3     1  UNL1       -0.3794
     13 H          16.3570   68.5086   -4.2117 H       1  UNL1        0.2106
     14 H          16.6988   69.5224   -2.2287 H       1  UNL1        0.2105
     15 N          18.5359   70.7934   -6.6869 N.ar    1  UNL1       -0.2551
     16 C          17.4605   70.7503   -7.4934 C.ar    1  UNL1        0.3323
     17 N          17.5978   70.5954   -8.8236 N.ar    1  UNL1       -0.2743
     18 C          18.8252   70.4821   -9.3706 C.ar    1  UNL1        0.2626
     19 C          19.9660   70.5268   -8.5336 C.ar    1  UNL1        0.0795
     20 C          19.7991   70.6873   -7.2040 C.ar    1  UNL1        0.0869
     21 O          16.3477   70.8513   -7.0140 O.2     1  UNL1       -0.2464
     22 O          18.9508   70.3423  -10.5744 O.2     1  UNL1       -0.2670
     23 H          16.8117   70.5652   -9.3905 H       1  UNL1        0.1734
     24 O          21.2568   71.4400    0.9002 O.3     1  UNL1       -0.2703
     25 P          21.4249   73.0167    1.1808 P.3     1  UNL1        0.2208
     26 O          22.8551   73.5101    0.6288 O.3     1  UNL1       -0.4371
     27 O          20.3475   73.7586    0.4900 O.2     1  UNL1       -0.5170
     28 O          21.3365   73.2922    2.7648 O.3     1  UNL1       -0.2865
     29 C          21.2658   74.6051    3.3238 C.3     1  UNL1        0.2611
     30 C          22.0441   74.6424    4.6412 C.3     1  UNL1        0.1582
     31 C          21.3927   73.6773    5.6366 C.3     1  UNL1        0.1625
     32 C          19.9228   74.0650    5.8197 C.3     1  UNL1        0.1686
     33 C          19.2261   74.0499    4.4565 C.3     1  UNL1        0.1760
     34 O          22.0685   73.7600    6.8934 O.3     1  UNL1       -0.3801
     35 O          19.8410   75.3751    6.3839 O.3     1  UNL1       -0.3794
     36 O          19.8995   74.9450    3.5692 O.3     1  UNL1       -0.3263
     37 H          21.7082   73.1735    7.5726 H       1  UNL1        0.2105
     38 H          18.9364   75.6866    6.5272 H       1  UNL1        0.2105
     39 C          24.4364   74.8528    5.0540 C.2     1  UNL1        0.2231
     40 C          25.8627   74.4357    4.8085 C.3     1  UNL1        0.0946
     41 N          23.4312   74.2362    4.4017 N.am    1  UNL1       -0.2994
     42 O          24.1916   75.7446    5.8395 O.2     1  UNL1       -0.2751
     43 H          23.6265   73.5238    3.7728 H       1  UNL1        0.1496
     44 C          17.7715   74.4941    4.6224 C.3     1  UNL1        0.1693
     45 O          17.6843   75.9115    4.4623 O.3     1  UNL1       -0.3794
     46 H          16.7887   76.2640    4.5549 H       1  UNL1        0.2105
@<TRIPOS>BOND
     1    29    30    1
     2    30    41    1
     3    30    31    1
     4    31    34    1
     5    31    32    1
     6    32    35    1
     7    32    33    1
     8    33    36    1
     9    33    44    1
    10    39    40    1
    11    39    42    2
    12    39    41   am
    13    41    43    1
    14    29    28    1
    15    34    37    1
    16    35    38    1
    17    29    36    1
    18    44    45    1
    19    45    46    1
    20    15     6    1
    21    15    16   ar
    22    16    21    2
    23    16    17   ar
    24    17    23    1
    25    17    18   ar
    26    18    19   ar
    27    19    20   ar
    28    15    20   ar
    29    18    22    2
    30     6     7    1
    31     6    11    1
    32     7     9    1
    33     7     8    1
    34     8    13    1
    35     9    10    1
    36     9    12    1
    37    10     5    1
    38    10    11    1
    39    12    14    1
    40     5     4    1
    41     4     1    1
    42     1     2    1
    43     1    24    1
    44     1     3    2
    45    24    25    1
    46    28    25    1
    47    25    26    1
    48    25    27    2
@<TRIPOS>MOLECULE
UD2
 46 48 0 0 0
SMALL
GASTEIGER

@<TRIPOS>ATOM
      1 P          22.9833   71.8705   -3.1477 P.3     1  UNL1        0.2189
      2 O          23.9048   72.8420   -4.0413 O.3     1  UNL1       -0.4371
      3 O          23.5617   70.5088   -3.1420 O.2     1  UNL1       -0.5170
      4 O          22.9170   72.4318   -1.6396 O.3     1  UNL1       -0.3112
      5 C          22.8063   71.5803   -0.4976 C.3     1  UNL1        0.1811
      6 C          21.4547   73.4163    2.2842 C.3     1  UNL1        0.2383
      7 C          21.3693   74.4000    1.0896 C.3     1  UNL1        0.1895
      8 O          20.2554   75.2832    1.2347 O.3     1  UNL1       -0.3779
      9 C          21.1611   73.4405   -0.1077 C.3     1  UNL1        0.1713
     10 C          21.6762   72.0819    0.4047 C.3     1  UNL1        0.1764
     11 O          22.1697   72.2867    1.7381 O.3     1  UNL1       -0.3308
     12 O          19.7753   73.3559   -0.4441 O.3     1  UNL1       -0.3794
     13 H          20.1599   75.9183    0.5121 H       1  UNL1        0.2106
     14 H          19.3840   74.1966   -0.7171 H       1  UNL1        0.2105
     15 N          22.2029   74.0142    3.3922 N.ar    1  UNL1       -0.2551
     16 C          21.5442   74.6722    4.3628 C.ar    1  UNL1        0.3323
     17 N          22.2062   75.2317    5.3928 N.ar    1  UNL1       -0.2743
     18 C          23.5494   75.1379    5.4675 C.ar    1  UNL1        0.2626
     19 C          24.2555   74.4472    4.4533 C.ar    1  UNL1        0.0795
     20 C          23.5658   73.8924    3.4345 C.ar    1  UNL1        0.0869
     21 O          20.3331   74.7645    4.3085 O.2     1  UNL1       -0.2464
     22 O          24.1497   75.6435    6.3995 O.2     1  UNL1       -0.2670
     23 H          21.7159   75.7036    6.0835 H       1  UNL1        0.1734
     24 O          21.4976   71.8204   -3.7668 O.3     1  UNL1       -0.2703
     25 P          20.5246   72.9198   -4.4283 P.3     1  UNL1        0.2208
     26 O          19.5866   73.5616   -3.2872 O.3     1  UNL1       -0.4371
     27 O          21.3374   73.9853   -5.0548 O.2     1  UNL1       -0.5170
     28 O          19.6045   72.2177   -5.5478 O.3     1  UNL1       -0.2865
     29 C          19.6519   70.8176   -5.8284 C.3     1  UNL1        0.2611
     30 C          18.4507   70.4287   -6.6936 C.3     1  UNL1        0.1582
     31 C          17.1609   70.7034   -5.9143 C.3     1  UNL1        0.1625
     32 C          17.2001   69.9292   -4.5939 C.3     1  UNL1        0.1686
     33 C          18.4499   70.3376   -3.8095 C.3     1  UNL1        0.1760
     34 O          16.0366   70.2747   -6.6861 O.3     1  UNL1       -0.3801
     35 O          17.2419   68.5268   -4.8635 O.3     1  UNL1       -0.3794
     36 O          19.6116   70.0849   -4.6021 O.3     1  UNL1       -0.3263
     37 H          15.1843   70.4196   -6.2527 H       1  UNL1        0.2105
     38 H          17.2691   67.9737   -4.0702 H       1  UNL1        0.2105
     39 C          19.3555   70.9561   -8.8938 C.2     1  UNL1        0.2231
     40 C          19.3628   71.7713  -10.1602 C.3     1  UNL1        0.0946
     41 N          18.4573   71.2223   -7.9251 N.am    1  UNL1       -0.2994
     42 O          20.1588   70.0590   -8.7450 O.2     1  UNL1       -0.2751
     43 H          17.8155   71.9401   -8.0432 H       1  UNL1        0.1496
     44 C          18.5279   69.5248   -2.5158 C.3     1  UNL1        0.1693
     45 O          19.7602   69.8064   -1.8490 O.3     1  UNL1       -0.3794
     46 H          19.8780   69.3245   -1.0190 H       1  UNL1        0.2105
@<TRIPOS>BOND
     1    29    30    1
     2    30    41    1
     3    30    31    1
     4    31    34    1
     5    31    32    1
     6    32    35    1
     7    32    33    1
     8    33    36    1
     9    33    44    1
    10    39    40    1
    11    39    42    2
    12    39    41   am
    13    41    43    1
    14    29    28    1
    15    34    37    1
    16    35    38    1
    17    29    36    1
    18    44    45    1
    19    45    46    1
    20    15     6    1
    21    15    16   ar
    22    16    21    2
    23    16    17   ar
    24    17    23    1
    25    17    18   ar
    26    18    19   ar
    27    19    20   ar
    28    15    20   ar
    29    18    22    2
    30     6     7    1
    31     6    11    1
    32     7     9    1
    33     7     8    1
    34     8    13    1
    35     9    10    1
    36     9    12    1
    37    10     5    1
    38    10    11    1
    39    12    14    1
    40     5     4    1
    41     4     1    1
    42     1     2    1
    43     1    24    1
    44     1     3    2
    45    24    25    1
    46    28    25    1
    47    25    26    1
    48    25    27    2
@<TRIPOS>MOLECULE
UD2
 46 48 0 0 0
SMALL
GASTEIGER

@<TRIPOS>ATOM
      1 P          22.8091   71.7779   -3.1078 P.3     1  UNL1        0.2189
      2 O          22.9468   72.2176   -1.5654 O.3     1  UNL1       -0.4371
      3 O          23.2997   70.3919   -3.2720 O.2     1  UNL1       -0.5170
      4 O          21.2631   71.8562   -3.5520 O.3     1  UNL1       -0.3112
      5 C          20.2505   72.4538   -2.7402 C.3     1  UNL1        0.1811
      6 C          18.0198   71.3100   -5.3194 C.3     1  UNL1        0.2383
      7 C          18.2552   70.0646   -4.4273 C.3     1  UNL1        0.1895
      8 O          17.1073   69.2137   -4.4261 O.3     1  UNL1       -0.3779
      9 C          18.4730   70.7003   -3.0323 C.3     1  UNL1        0.1713
     10 C          18.8742   72.1556   -3.3402 C.3     1  UNL1        0.1764
     11 O          18.9240   72.2925   -4.7693 O.3     1  UNL1       -0.3308
     12 O          17.2633   70.6644   -2.2733 O.3     1  UNL1       -0.3794
     13 H          17.2060   68.4204   -3.8824 H       1  UNL1        0.2106
     14 H          16.9327   69.7726   -2.1008 H       1  UNL1        0.2105
     15 N          18.3609   71.0177   -6.7134 N.ar    1  UNL1       -0.2551
     16 C          17.3935   70.6532   -7.5738 C.ar    1  UNL1        0.3323
     17 N          17.6783   70.3786   -8.8606 N.ar    1  UNL1       -0.2743
     18 C          18.9470   70.4676   -9.3089 C.ar    1  UNL1        0.2626
     19 C          19.9750   70.8512   -8.4144 C.ar    1  UNL1        0.0795
     20 C          19.6603   71.1247   -7.1308 C.ar    1  UNL1        0.0869
     21 O          16.2451   70.5690   -7.1835 O.2     1  UNL1       -0.2464
     22 O          19.2060   70.2197  -10.4733 O.2     1  UNL1       -0.2670
     23 H          16.9690   70.1160   -9.4673 H       1  UNL1        0.1734
     24 O          23.6822   72.7694   -4.0287 O.3     1  UNL1       -0.2703
     25 P          24.0929   74.3227   -3.9219 P.3     1  UNL1        0.2208
     26 O          23.6761   75.0821   -5.2795 O.3     1  UNL1       -0.4371
     27 O          23.3910   74.9411   -2.7760 O.2     1  UNL1       -0.5170
     28 O          25.6840   74.4433   -3.7057 O.3     1  UNL1       -0.2865
     29 C          26.3892   75.6831   -3.7894 C.3     1  UNL1        0.2611
     30 C          27.8842   75.4096   -3.9706 C.3     1  UNL1        0.1582
     31 C          28.4093   74.6578   -2.7437 C.3     1  UNL1        0.1625
     32 C          28.1185   75.4848   -1.4884 C.3     1  UNL1        0.1686
     33 C          26.6140   75.7554   -1.4029 C.3     1  UNL1        0.1760
     34 O          29.8196   74.4628   -2.8710 O.3     1  UNL1       -0.3801
     35 O          28.8240   76.7252   -1.5595 O.3     1  UNL1       -0.3794
     36 O          26.1846   76.4290   -2.5877 O.3     1  UNL1       -0.3263
     37 H          30.2197   73.9910   -2.1277 H       1  UNL1        0.2105
     38 H          28.6851   77.3018   -0.7952 H       1  UNL1        0.2105
     39 C          28.8012   75.0846   -6.2047 C.2     1  UNL1        0.2231
     40 C          29.0140   74.2466   -7.4381 C.3     1  UNL1        0.0946
     41 N          28.0905   74.5940   -5.1701 N.am    1  UNL1       -0.2994
     42 O          29.2696   76.2021   -6.1421 O.2     1  UNL1       -0.2751
     43 H          27.7150   73.7010   -5.2201 H       1  UNL1        0.1496
     44 C          26.3222   76.6318   -0.1834 C.3     1  UNL1        0.1693
     45 O          26.3831   78.0091   -0.5601 O.3     1  UNL1       -0.3794
     46 H          26.2080   78.6239    0.1653 H       1  UNL1        0.2105
@<TRIPOS>BOND
     1    29    30    1
     2    30    41    1
     3    30    31    1
     4    31    34    1
     5    31    32    1
     6    32    35    1
     7    32    33    1
     8    33    36    1
     9    33    44    1
    10    39    40    1
    11    39    42    2
    12    39    41   am
    13    41    43    1
    14    29    28    1
    15    34    37    1
    16    35    38    1
    17    29    36    1
    18    44    45    1
    19    45    46    1
    20    15     6    1
    21    15    16   ar
    22    16    21    2
    23    16    17   ar
    24    17    23    1
    25    17    18   ar
    26    18    19   ar
    27    19    20   ar
    28    15    20   ar
    29    18    22    2
    30     6     7    1
    31     6    11    1
    32     7     9    1
    33     7     8    1
    34     8    13    1
    35     9    10    1
    36     9    12    1
    37    10     5    1
    38    10    11    1
    39    12    14    1
    40     5     4    1
    41     4     1    1
    42     1     2    1
    43     1    24    1
    44     1     3    2
    45    24    25    1
    46    28    25    1
    47    25    26    1
    48    25    27    2
@<TRIPOS>MOLECULE
UD2
 46 48 0 0 0
SMALL
GASTEIGER

@<TRIPOS>ATOM
      1 P          22.8261   71.9784   -3.3700 P.3     1  UNL1        0.2189
      2 O          23.7211   72.8785   -4.3601 O.3     1  UNL1       -0.4371
      3 O          23.4366   70.6376   -3.2340 O.2     1  UNL1       -0.5170
      4 O          22.7519   72.6835   -1.9239 O.3     1  UNL1       -0.3112
      5 C          22.6525   71.9463   -0.7040 C.3     1  UNL1        0.1811
      6 C          20.5835   73.0876    2.0077 C.3     1  UNL1        0.2383
      7 C          20.7944   74.3428    1.1234 C.3     1  UNL1        0.1895
      8 O          19.6641   75.2140    1.1964 O.3     1  UNL1       -0.3779
      9 C          20.9260   73.7261   -0.2907 C.3     1  UNL1        0.1713
     10 C          21.3158   72.2592   -0.0270 C.3     1  UNL1        0.1764
     11 O          21.4389   72.0982    1.3952 O.3     1  UNL1       -0.3308
     12 O          19.6786   73.7958   -0.9835 O.3     1  UNL1       -0.3794
     13 H          19.7485   76.0141    0.6604 H       1  UNL1        0.2106
     14 H          19.3559   74.6961   -1.1245 H       1  UNL1        0.2105
     15 N          21.0035   73.3510    3.3858 N.ar    1  UNL1       -0.2551
     16 C          20.1114   73.8205    4.2761 C.ar    1  UNL1        0.3323
     17 N          20.4696   74.0717    5.5492 N.ar    1  UNL1       -0.2743
     18 C          21.7374   73.8527    5.9534 C.ar    1  UNL1        0.2626
     19 C          22.6866   73.3577    5.0270 C.ar    1  UNL1        0.0795
     20 C          22.2988   73.1107    3.7581 C.ar    1  UNL1        0.0869
     21 O          18.9647   74.0224    3.9258 O.2     1  UNL1       -0.2464
     22 O          22.0629   74.0793    7.1054 O.2     1  UNL1       -0.2670
     23 H          19.8142   74.4111    6.1780 H       1  UNL1        0.1734
     24 O          21.3398   71.8333   -3.9723 O.3     1  UNL1       -0.2703
     25 P          20.1934   72.8858   -4.3857 P.3     1  UNL1        0.2208
     26 O          18.8219   72.5091   -3.6301 O.3     1  UNL1       -0.4371
     27 O          20.6120   74.2500   -3.9957 O.2     1  UNL1       -0.5170
     28 O          19.9622   72.8295   -5.9782 O.3     1  UNL1       -0.2865
     29 C          20.1717   71.6482   -6.7539 C.3     1  UNL1        0.2611
     30 C          20.1192   71.9984   -8.2430 C.3     1  UNL1        0.1582
     31 C          18.7263   72.5372   -8.5831 C.3     1  UNL1        0.1625
     32 C          17.6774   71.4913   -8.1956 C.3     1  UNL1        0.1686
     33 C          17.8240   71.1606   -6.7079 C.3     1  UNL1        0.1760
     34 O          18.6450   72.7979   -9.9862 O.3     1  UNL1       -0.3801
     35 O          17.8747   70.3072   -8.9703 O.3     1  UNL1       -0.3794
     36 O          19.1507   70.6944   -6.4537 O.3     1  UNL1       -0.3263
     37 H          17.7883   73.1430  -10.2728 H       1  UNL1        0.2105
     38 H          17.2440   69.5996   -8.7761 H       1  UNL1        0.2105
     39 C          20.7816   74.3233   -8.5490 C.2     1  UNL1        0.2231
     40 C          21.8159   75.3746   -8.8551 C.3     1  UNL1        0.0946
     41 N          21.1258   73.0204   -8.5410 N.am    1  UNL1       -0.2994
     42 O          19.6377   74.6492   -8.3096 O.2     1  UNL1       -0.2751
     43 H          22.0401   72.7594   -8.7334 H       1  UNL1        0.1496
     44 C          16.8188   70.0724   -6.3261 C.3     1  UNL1        0.1693
     45 O          16.8909   69.8283   -4.9199 O.3     1  UNL1       -0.3794
     46 H          16.2795   69.1481   -4.6063 H       1  UNL1        0.2105
@<TRIPOS>BOND
     1    29    30    1
     2    30    41    1
     3    30    31    1
     4    31    34    1
     5    31    32    1
     6    32    35    1
     7    32    33    1
     8    33    36    1
     9    33    44    1
    10    39    40    1
    11    39    42    2
    12    39    41   am
    13    41    43    1
    14    29    28    1
    15    34    37    1
    16    35    38    1
    17    29    36    1
    18    44    45    1
    19    45    46    1
    20    15     6    1
    21    15    16   ar
    22    16    21    2
    23    16    17   ar
    24    17    23    1
    25    17    18   ar
    26    18    19   ar
    27    19    20   ar
    28    15    20   ar
    29    18    22    2
    30     6     7    1
    31     6    11    1
    32     7     9    1
    33     7     8    1
    34     8    13    1
    35     9    10    1
    36     9    12    1
    37    10     5    1
    38    10    11    1
    39    12    14    1
    40     5     4    1
    41     4     1    1
    42     1     2    1
    43     1    24    1
    44     1     3    2
    45    24    25    1
    46    28    25    1
    47    25    26    1
    48    25    27    2
@<TRIPOS>MOLECULE
UD2
 46 48 0 0 0
SMALL
GASTEIGER

@<TRIPOS>ATOM
      1 P          22.3876   70.5198   -0.2032 P.3     1  UNL1        0.2189
      2 O          21.4560   70.7393    1.0911 O.3     1  UNL1       -0.4371
      3 O          23.4925   69.5957    0.1346 O.2     1  UNL1       -0.5170
      4 O          21.5081   69.8912   -1.3970 O.3     1  UNL1       -0.3112
      5 C          21.4429   70.4695   -2.7019 C.3     1  UNL1        0.1811
      6 C          18.6621   70.6980   -4.9716 C.3     1  UNL1        0.2383
      7 C          18.5921   69.2537   -4.4136 C.3     1  UNL1        0.1895
      8 O          17.2407   68.7926   -4.3600 O.3     1  UNL1       -0.3779
      9 C          19.1736   69.4268   -2.9891 C.3     1  UNL1        0.1713
     10 C          19.9810   70.7365   -3.0686 C.3     1  UNL1        0.1764
     11 O          19.8953   71.2105   -4.4219 O.3     1  UNL1       -0.3308
     12 O          18.1204   69.5453   -2.0313 O.3     1  UNL1       -0.3794
     13 H          17.1450   67.8934   -4.0181 H       1  UNL1        0.2106
     14 H          17.5441   68.7708   -1.9815 H       1  UNL1        0.2105
     15 N          18.7159   70.6835   -6.4351 N.ar    1  UNL1       -0.2551
     16 C          17.5730   70.6783   -7.1440 C.ar    1  UNL1        0.3323
     17 N          17.5925   70.6648   -8.4899 N.ar    1  UNL1       -0.2743
     18 C          18.7676   70.6581   -9.1516 C.ar    1  UNL1        0.2626
     19 C          19.9784   70.6645   -8.4181 C.ar    1  UNL1        0.0795
     20 C          19.9290   70.6823   -7.0695 C.ar    1  UNL1        0.0869
     21 O          16.5062   70.6844   -6.5606 O.2     1  UNL1       -0.2464
     22 O          18.7867   70.6463  -10.3698 O.2     1  UNL1       -0.2670
     23 H          16.7592   70.6600   -8.9856 H       1  UNL1        0.1734
     24 O          22.9958   71.9349   -0.6733 O.3     1  UNL1       -0.2703
     25 P          22.5371   73.4668   -0.4846 P.3     1  UNL1        0.2208
     26 O          20.9390   73.5728   -0.6539 O.3     1  UNL1       -0.4371
     27 O          22.9216   73.9345    0.8651 O.2     1  UNL1       -0.5170
     28 O          23.2568   74.3832   -1.5959 O.3     1  UNL1       -0.2865
     29 C          23.7643   73.8615   -2.8253 C.3     1  UNL1        0.2611
     30 C          24.7917   74.8348   -3.4083 C.3     1  UNL1        0.1582
     31 C          24.1019   76.1670   -3.7178 C.3     1  UNL1        0.1625
     32 C          22.9336   75.9145   -4.6746 C.3     1  UNL1        0.1686
     33 C          21.9775   74.8994   -4.0426 C.3     1  UNL1        0.1760
     34 O          25.0372   77.0576   -4.3306 O.3     1  UNL1       -0.3801
     35 O          23.4312   75.3977   -5.9102 O.3     1  UNL1       -0.3794
     36 O          22.6888   73.6947   -3.7515 O.3     1  UNL1       -0.3263
     37 H          24.6676   77.9229   -4.5535 H       1  UNL1        0.2105
     38 H          22.7438   75.2132   -6.5655 H       1  UNL1        0.2105
     39 C          27.1471   75.1101   -2.8477 C.2     1  UNL1        0.2231
     40 C          28.2513   75.3352   -1.8484 C.3     1  UNL1        0.0946
     41 N          25.8653   75.0536   -2.4356 N.am    1  UNL1       -0.2994
     42 O          27.4112   74.9793   -4.0247 O.2     1  UNL1       -0.2751
     43 H          25.6537   75.1571   -1.4946 H       1  UNL1        0.1496
     44 C          20.8383   74.5965   -5.0177 C.3     1  UNL1        0.1693
     45 O          21.1801   73.4588   -5.8122 O.3     1  UNL1       -0.3794
     46 H          20.5019   73.2088   -6.4545 H       1  UNL1        0.2105
@<TRIPOS>BOND
     1    29    30    1
     2    30    41    1
     3    30    31    1
     4    31    34    1
     5    31    32    1
     6    32    35    1
     7    32    33    1
     8    33    36    1
     9    33    44    1
    10    39    40    1
    11    39    42    2
    12    39    41   am
    13    41    43    1
    14    29    28    1
    15    34    37    1
    16    35    38    1
    17    29    36    1
    18    44    45    1
    19    45    46    1
    20    15     6    1
    21    15    16   ar
    22    16    21    2
    23    16    17   ar
    24    17    23    1
    25    17    18   ar
    26    18    19   ar
    27    19    20   ar
    28    15    20   ar
    29    18    22    2
    30     6     7    1
    31     6    11    1
    32     7     9    1
    33     7     8    1
    34     8    13    1
    35     9    10    1
    36     9    12    1
    37    10     5    1
    38    10    11    1
    39    12    14    1
    40     5     4    1
    41     4     1    1
    42     1     2    1
    43     1    24    1
    44     1     3    2
    45    24    25    1
    46    28    25    1
    47    25    26    1
    48    25    27    2
@<TRIPOS>MOLECULE
UD2
 46 48 0 0 0
SMALL
GASTEIGER

@<TRIPOS>ATOM
      1 P          21.7443   70.8947   -0.4167 P.3     1  UNL1        0.2189
      2 O          21.7450   69.4374    0.2672 O.3     1  UNL1       -0.4371
      3 O          23.0434   71.1273   -1.0853 O.2     1  UNL1       -0.5170
      4 O          20.5588   70.9766   -1.5037 O.3     1  UNL1       -0.3112
      5 C          20.7088   71.6211   -2.7701 C.3     1  UNL1        0.1811
      6 C          18.2931   71.4362   -5.4284 C.3     1  UNL1        0.2383
      7 C          18.0682   70.1414   -4.6067 C.3     1  UNL1        0.1895
      8 O          16.7002   69.7325   -4.6634 O.3     1  UNL1       -0.3779
      9 C          18.4508   70.5936   -3.1761 C.3     1  UNL1        0.1713
     10 C          19.3297   71.8394   -3.3974 C.3     1  UNL1        0.1764
     11 O          19.4616   72.0235   -4.8159 O.3     1  UNL1       -0.3308
     12 O          17.2804   70.9326   -2.4304 O.3     1  UNL1       -0.3794
     13 H          16.5094   68.9264   -4.1649 H       1  UNL1        0.2106
     14 H          16.6625   70.1988   -2.3116 H       1  UNL1        0.2105
     15 N          18.5525   71.1165   -6.8340 N.ar    1  UNL1       -0.2551
     16 C          17.5332   71.0927   -7.7111 C.ar    1  UNL1        0.3323
     17 N          17.7425   70.8019   -9.0087 N.ar    1  UNL1       -0.2743
     18 C          18.9871   70.5301   -9.4512 C.ar    1  UNL1        0.2626
     19 C          20.0695   70.5526   -8.5391 C.ar    1  UNL1        0.0795
     20 C          19.8313   70.8515   -7.2447 C.ar    1  UNL1        0.0869
     21 O          16.4058   71.3359   -7.3262 O.2     1  UNL1       -0.2464
     22 O          19.1779   70.2671  -10.6255 O.2     1  UNL1       -0.2670
     23 H          16.9962   70.7878   -9.6275 H       1  UNL1        0.1734
     24 O          21.5134   72.0182    0.7137 O.3     1  UNL1       -0.2703
     25 P          22.3479   72.4904    2.0073 P.3     1  UNL1        0.2208
     26 O          23.2404   71.2632    2.5470 O.3     1  UNL1       -0.4371
     27 O          23.2319   73.6182    1.6398 O.2     1  UNL1       -0.5170
     28 O          21.3283   72.9612    3.1612 O.3     1  UNL1       -0.2865
     29 C          19.9752   73.3370    2.8985 C.3     1  UNL1        0.2611
     30 C          19.9390   74.7639    2.3458 C.3     1  UNL1        0.1582
     31 C          20.4920   75.7255    3.4022 C.3     1  UNL1        0.1625
     32 C          19.6734   75.5801    4.6879 C.3     1  UNL1        0.1686
     33 C          19.7199   74.1213    5.1504 C.3     1  UNL1        0.1760
     34 O          20.3939   77.0686    2.9229 O.3     1  UNL1       -0.3801
     35 O          18.3189   75.9592    4.4372 O.3     1  UNL1       -0.3794
     36 O          19.2208   73.2775    4.1108 O.3     1  UNL1       -0.3263
     37 H          20.7276   77.7321    3.5422 H       1  UNL1        0.2105
     38 H          17.7411   75.8908    5.2102 H       1  UNL1        0.2105
     39 C          20.1800   75.0565   -0.0612 C.2     1  UNL1        0.2231
     40 C          21.0243   75.1360   -1.3060 C.3     1  UNL1        0.0946
     41 N          20.7609   74.8408    1.1355 N.am    1  UNL1       -0.2994
     42 O          18.9759   75.1867   -0.1354 O.2     1  UNL1       -0.2751
     43 H          21.7234   74.7357    1.1951 H       1  UNL1        0.1496
     44 C          18.8554   73.9554    6.4016 C.3     1  UNL1        0.1693
     45 O          19.0512   75.0745    7.2686 O.3     1  UNL1       -0.3794
     46 H          18.5329   75.0364    8.0841 H       1  UNL1        0.2105
@<TRIPOS>BOND
     1    29    30    1
     2    30    41    1
     3    30    31    1
     4    31    34    1
     5    31    32    1
     6    32    35    1
     7    32    33    1
     8    33    36    1
     9    33    44    1
    10    39    40    1
    11    39    42    2
    12    39    41   am
    13    41    43    1
    14    29    28    1
    15    34    37    1
    16    35    38    1
    17    29    36    1
    18    44    45    1
    19    45    46    1
    20    15     6    1
    21    15    16   ar
    22    16    21    2
    23    16    17   ar
    24    17    23    1
    25    17    18   ar
    26    18    19   ar
    27    19    20   ar
    28    15    20   ar
    29    18    22    2
    30     6     7    1
    31     6    11    1
    32     7     9    1
    33     7     8    1
    34     8    13    1
    35     9    10    1
    36     9    12    1
    37    10     5    1
    38    10    11    1
    39    12    14    1
    40     5     4    1
    41     4     1    1
    42     1     2    1
    43     1    24    1
    44     1     3    2
    45    24    25    1
    46    28    25    1
    47    25    26    1
    48    25    27    2
@<TRIPOS>MOLECULE
UD2
 46 48 0 0 0
SMALL
GASTEIGER

@<TRIPOS>ATOM
      1 P          22.0622   70.4133   -0.2019 P.3     1  UNL1        0.2189
      2 O          21.1291   70.9820    0.9801 O.3     1  UNL1       -0.4371
      3 O          23.0021   69.4123    0.3491 O.2     1  UNL1       -0.5170
      4 O          21.1408   69.7219   -1.3274 O.3     1  UNL1       -0.3112
      5 C          21.1919   70.0896   -2.7071 C.3     1  UNL1        0.1811
      6 C          18.5915   70.8526   -5.0719 C.3     1  UNL1        0.2383
      7 C          18.1764   69.4893   -4.4627 C.3     1  UNL1        0.1895
      8 O          16.7541   69.3548   -4.4352 O.3     1  UNL1       -0.3779
      9 C          18.7499   69.5862   -3.0277 C.3     1  UNL1        0.1713
     10 C          19.8402   70.6699   -3.1303 C.3     1  UNL1        0.1764
     11 O          19.8971   71.0909   -4.5025 O.3     1  UNL1       -0.3308
     12 O          17.7314   69.9862   -2.1093 O.3     1  UNL1       -0.3794
     13 H          16.4451   68.5178   -4.0630 H       1  UNL1        0.2106
     14 H          16.9904   69.3683   -2.0490 H       1  UNL1        0.2105
     15 N          18.6735   70.7618   -6.5314 N.ar    1  UNL1       -0.2551
     16 C          17.5461   70.7797   -7.2646 C.ar    1  UNL1        0.3323
     17 N          17.5917   70.6975   -8.6075 N.ar    1  UNL1       -0.2743
     18 C          18.7777   70.5973   -9.2415 C.ar    1  UNL1        0.2626
     19 C          19.9724   70.5784   -8.4822 C.ar    1  UNL1        0.0795
     20 C          19.8972   70.6665   -7.1376 C.ar    1  UNL1        0.0869
     21 O          16.4698   70.8699   -6.7063 O.2     1  UNL1       -0.2464
     22 O          18.8203   70.5233  -10.4569 O.2     1  UNL1       -0.2670
     23 H          16.7692   70.7106   -9.1209 H       1  UNL1        0.1734
     24 O          22.8936   71.6253   -0.8601 O.3     1  UNL1       -0.2703
     25 P          22.7655   73.2294   -0.8029 P.3     1  UNL1        0.2208
     26 O          21.3071   73.6699   -1.3251 O.3     1  UNL1       -0.4371
     27 O          22.9496   73.6899    0.5908 O.2     1  UNL1       -0.5170
     28 O          23.8944   73.8916   -1.7409 O.3     1  UNL1       -0.2865
     29 C          23.9238   75.2841   -2.0589 C.3     1  UNL1        0.2611
     30 C          24.5250   75.4776   -3.4531 C.3     1  UNL1        0.1582
     31 C          25.9704   74.9705   -3.4512 C.3     1  UNL1        0.1625
     32 C          26.7597   75.7143   -2.3704 C.3     1  UNL1        0.1686
     33 C          26.0721   75.5115   -1.0176 C.3     1  UNL1        0.1760
     34 O          26.5634   75.2145   -4.7288 O.3     1  UNL1       -0.3801
     35 O          26.7999   77.1080   -2.6822 O.3     1  UNL1       -0.3794
     36 O          24.7228   75.9753   -1.0966 O.3     1  UNL1       -0.3263
     37 H          27.4808   74.9170   -4.7993 H       1  UNL1        0.2105
     38 H          27.2848   77.6421   -2.0376 H       1  UNL1        0.2105
     39 C          22.9833   75.3715   -5.3371 C.2     1  UNL1        0.2231
     40 C          22.1780   74.5942   -6.3450 C.3     1  UNL1        0.0946
     41 N          23.7418   74.7208   -4.4330 N.am    1  UNL1       -0.2994
     42 O          22.9494   76.5844   -5.3386 O.2     1  UNL1       -0.2751
     43 H          23.7684   73.7511   -4.4308 H       1  UNL1        0.1496
     44 C          26.8209   76.3006    0.0581 C.3     1  UNL1        0.1693
     45 O          26.3995   75.8624    1.3514 O.3     1  UNL1       -0.3794
     46 H          26.8341   76.3208    2.0836 H       1  UNL1        0.2105
@<TRIPOS>BOND
     1    29    30    1
     2    30    41    1
     3    30    31    1
     4    31    34    1
     5    31    32    1
     6    32    35    1
     7    32    33    1
     8    33    36    1
     9    33    44    1
    10    39    40    1
    11    39    42    2
    12    39    41   am
    13    41    43    1
    14    29    28    1
    15    34    37    1
    16    35    38    1
    17    29    36    1
    18    44    45    1
    19    45    46    1
    20    15     6    1
    21    15    16   ar
    22    16    21    2
    23    16    17   ar
    24    17    23    1
    25    17    18   ar
    26    18    19   ar
    27    19    20   ar
    28    15    20   ar
    29    18    22    2
    30     6     7    1
    31     6    11    1
    32     7     9    1
    33     7     8    1
    34     8    13    1
    35     9    10    1
    36     9    12    1
    37    10     5    1
    38    10    11    1
    39    12    14    1
    40     5     4    1
    41     4     1    1
    42     1     2    1
    43     1    24    1
    44     1     3    2
    45    24    25    1
    46    28    25    1
    47    25    26    1
    48    25    27    2
@<TRIPOS>MOLECULE
UD2
 46 48 0 0 0
SMALL
GASTEIGER

@<TRIPOS>ATOM
      1 P          22.2341   70.9149   -2.4440 P.3     1  UNL1        0.2189
      2 O          23.5532   70.5106   -3.2733 O.3     1  UNL1       -0.4371
      3 O          21.6323   69.7006   -1.8505 O.2     1  UNL1       -0.5170
      4 O          22.6322   71.9447   -1.2715 O.3     1  UNL1       -0.3112
      5 C          22.6312   71.5858    0.1115 C.3     1  UNL1        0.1811
      6 C          20.5828   73.0498    2.6801 C.3     1  UNL1        0.2383
      7 C          20.8303   74.2029    1.6744 C.3     1  UNL1        0.1895
      8 O          19.7232   75.1060    1.6514 O.3     1  UNL1       -0.3779
      9 C          20.9509   73.4426    0.3310 C.3     1  UNL1        0.1713
     10 C          21.3007   72.0004    0.7447 C.3     1  UNL1        0.1764
     11 O          21.4139   71.9815    2.1766 O.3     1  UNL1       -0.3308
     12 O          19.7084   73.4740   -0.3733 O.3     1  UNL1       -0.3794
     13 H          19.8308   75.8451    1.0376 H       1  UNL1        0.2106
     14 H          19.4102   74.3633   -0.6069 H       1  UNL1        0.2105
     15 N          21.0043   73.4408    4.0271 N.ar    1  UNL1       -0.2551
     16 C          20.0959   73.9142    4.8985 C.ar    1  UNL1        0.3323
     17 N          20.4551   74.2812    6.1429 N.ar    1  UNL1       -0.2743
     18 C          21.7406   74.1769    6.5368 C.ar    1  UNL1        0.2626
     19 C          22.7073   73.6793    5.6301 C.ar    1  UNL1        0.0795
     20 C          22.3182   73.3148    4.3902 C.ar    1  UNL1        0.0869
     21 O          18.9331   74.0134    4.5571 O.2     1  UNL1       -0.2464
     22 O          22.0670   74.5084    7.6629 O.2     1  UNL1       -0.2670
     23 H          19.7876   74.6216    6.7583 H       1  UNL1        0.1734
     24 O          21.1714   71.6128   -3.4323 O.3     1  UNL1       -0.2703
     25 P          21.3009   72.6228   -4.6798 P.3     1  UNL1        0.2208
     26 O          20.7577   74.0770   -4.2509 O.3     1  UNL1       -0.4371
     27 O          22.7197   72.7268   -5.0854 O.2     1  UNL1       -0.5170
     28 O          20.4289   72.0661   -5.9136 O.3     1  UNL1       -0.2865
     29 C          19.2727   72.7387   -6.4158 C.3     1  UNL1        0.2611
     30 C          18.0115   72.0341   -5.9102 C.3     1  UNL1        0.1582
     31 C          17.9868   70.6007   -6.4498 C.3     1  UNL1        0.1625
     32 C          18.0557   70.6410   -7.9788 C.3     1  UNL1        0.1686
     33 C          19.3156   71.3994   -8.4048 C.3     1  UNL1        0.1760
     34 O          16.7763   69.9585   -6.0430 O.3     1  UNL1       -0.3801
     35 O          16.9004   71.3069   -8.4917 O.3     1  UNL1       -0.3794
     36 O          19.2907   72.7138   -7.8446 O.3     1  UNL1       -0.3263
     37 H          16.6938   69.0451   -6.3498 H       1  UNL1        0.2105
     38 H          16.8779   71.3698   -9.4569 H       1  UNL1        0.2105
     39 C          16.8638   72.1079   -3.7620 C.2     1  UNL1        0.2231
     40 C          16.8723   72.0787   -2.2561 C.3     1  UNL1        0.0946
     41 N          18.0207   72.0058   -4.4454 N.am    1  UNL1       -0.2994
     42 O          15.8147   72.2235   -4.3607 O.2     1  UNL1       -0.2751
     43 H          18.8597   71.9144   -3.9672 H       1  UNL1        0.1496
     44 C          19.3610   71.4959   -9.9309 C.3     1  UNL1        0.1693
     45 O          18.7341   70.3449  -10.5006 O.3     1  UNL1       -0.3794
     46 H          18.7264   70.3386  -11.4675 H       1  UNL1        0.2105
@<TRIPOS>BOND
     1    29    30    1
     2    30    41    1
     3    30    31    1
     4    31    34    1
     5    31    32    1
     6    32    35    1
     7    32    33    1
     8    33    36    1
     9    33    44    1
    10    39    40    1
    11    39    42    2
    12    39    41   am
    13    41    43    1
    14    29    28    1
    15    34    37    1
    16    35    38    1
    17    29    36    1
    18    44    45    1
    19    45    46    1
    20    15     6    1
    21    15    16   ar
    22    16    21    2
    23    16    17   ar
    24    17    23    1
    25    17    18   ar
    26    18    19   ar
    27    19    20   ar
    28    15    20   ar
    29    18    22    2
    30     6     7    1
    31     6    11    1
    32     7     9    1
    33     7     8    1
    34     8    13    1
    35     9    10    1
    36     9    12    1
    37    10     5    1
    38    10    11    1
    39    12    14    1
    40     5     4    1
    41     4     1    1
    42     1     2    1
    43     1    24    1
    44     1     3    2
    45    24    25    1
    46    28    25    1
    47    25    26    1
    48    25    27    2
@<TRIPOS>MOLECULE
UD2
 46 48 0 0 0
SMALL
GASTEIGER

@<TRIPOS>ATOM
      1 P          22.1662   70.3454   -0.1757 P.3     1  UNL1        0.2189
      2 O          21.2290   70.8716    1.0227 O.3     1  UNL1       -0.4371
      3 O          23.1237   69.3466    0.3482 O.2     1  UNL1       -0.5170
      4 O          21.2511   69.6663   -1.3137 O.3     1  UNL1       -0.3112
      5 C          21.2635   70.0919   -2.6775 C.3     1  UNL1        0.1811
      6 C          18.6048   70.8376   -4.9822 C.3     1  UNL1        0.2383
      7 C          18.2730   69.4203   -4.4499 C.3     1  UNL1        0.1895
      8 O          16.8610   69.2030   -4.4232 O.3     1  UNL1       -0.3779
      9 C          18.8517   69.4683   -3.0145 C.3     1  UNL1        0.1713
     10 C          19.8775   70.6168   -3.0603 C.3     1  UNL1        0.1764
     11 O          19.8992   71.1177   -4.4064 O.3     1  UNL1       -0.3308
     12 O          17.8195   69.7563   -2.0699 O.3     1  UNL1       -0.3794
     13 H          16.6032   68.3299   -4.0981 H       1  UNL1        0.2106
     14 H          17.1155   69.0945   -2.0414 H       1  UNL1        0.2105
     15 N          18.6799   70.8347   -6.4448 N.ar    1  UNL1       -0.2551
     16 C          17.5510   70.9248   -7.1703 C.ar    1  UNL1        0.3323
     17 N          17.5904   70.9243   -8.5159 N.ar    1  UNL1       -0.2743
     18 C          18.7716   70.8346   -9.1604 C.ar    1  UNL1        0.2626
     19 C          19.9678   70.7403   -8.4092 C.ar    1  UNL1        0.0795
     20 C          19.8991   70.7474   -7.0614 C.ar    1  UNL1        0.0869
     21 O          16.4789   71.0064   -6.6026 O.2     1  UNL1       -0.2464
     22 O          18.8086   70.8345  -10.3782 O.2     1  UNL1       -0.2670
     23 H          16.7669   70.9887   -9.0237 H       1  UNL1        0.1734
     24 O          22.9758   71.5854   -0.8083 O.3     1  UNL1       -0.2703
     25 P          22.7104   73.1718   -0.8842 P.3     1  UNL1        0.2208
     26 O          23.2241   73.8670    0.4747 O.3     1  UNL1       -0.4371
     27 O          23.4437   73.7404   -2.0362 O.2     1  UNL1       -0.5170
     28 O          21.1336   73.4439   -1.0639 O.3     1  UNL1       -0.2865
     29 C          20.6073   74.3754   -2.0109 C.3     1  UNL1        0.2611
     30 C          20.4038   75.7329   -1.3338 C.3     1  UNL1        0.1582
     31 C          19.3758   75.5833   -0.2081 C.3     1  UNL1        0.1625
     32 C          18.0748   75.0241   -0.7903 C.3     1  UNL1        0.1686
     33 C          18.3682   73.6935   -1.4884 C.3     1  UNL1        0.1760
     34 O          19.1248   76.8609    0.3819 O.3     1  UNL1       -0.3801
     35 O          17.5369   75.9513   -1.7350 O.3     1  UNL1       -0.3794
     36 O          19.3538   73.8969   -2.5029 O.3     1  UNL1       -0.3263
     37 H          18.4823   76.8406    1.1043 H       1  UNL1        0.2105
     38 H          16.7103   75.6609   -2.1453 H       1  UNL1        0.2105
     39 C          22.4010   77.1255   -1.4318 C.2     1  UNL1        0.2231
     40 C          23.7094   77.6036   -0.8591 C.3     1  UNL1        0.0946
     41 N          21.6765   76.1973   -0.7762 N.am    1  UNL1       -0.2994
     42 O          21.9985   77.5759   -2.4841 O.2     1  UNL1       -0.2751
     43 H          21.9984   75.8362    0.0647 H       1  UNL1        0.1496
     44 C          17.0842   73.1575   -2.1245 C.3     1  UNL1        0.1693
     45 O          16.9861   73.6280   -3.4704 O.3     1  UNL1       -0.3794
     46 H          16.1942   73.3265   -3.9362 H       1  UNL1        0.2105
@<TRIPOS>BOND
     1    29    30    1
     2    30    41    1
     3    30    31    1
     4    31    34    1
     5    31    32    1
     6    32    35    1
     7    32    33    1
     8    33    36    1
     9    33    44    1
    10    39    40    1
    11    39    42    2
    12    39    41   am
    13    41    43    1
    14    29    28    1
    15    34    37    1
    16    35    38    1
    17    29    36    1
    18    44    45    1
    19    45    46    1
    20    15     6    1
    21    15    16   ar
    22    16    21    2
    23    16    17   ar
    24    17    23    1
    25    17    18   ar
    26    18    19   ar
    27    19    20   ar
    28    15    20   ar
    29    18    22    2
    30     6     7    1
    31     6    11    1
    32     7     9    1
    33     7     8    1
    34     8    13    1
    35     9    10    1
    36     9    12    1
    37    10     5    1
    38    10    11    1
    39    12    14    1
    40     5     4    1
    41     4     1    1
    42     1     2    1
    43     1    24    1
    44     1     3    2
    45    24    25    1
    46    28    25    1
    47    25    26    1
    48    25    27    2
@<TRIPOS>MOLECULE
UD2
 46 48 0 0 0
SMALL
GASTEIGER

@<TRIPOS>ATOM
      1 P          20.7922   74.2391   -3.3729 P.3     1  UNL1        0.2189
      2 O          19.9429   75.1452   -4.3971 O.3     1  UNL1       -0.4371
      3 O          22.1872   74.1267   -3.8529 O.2     1  UNL1       -0.5170
      4 O          20.7797   74.9224   -1.9147 O.3     1  UNL1       -0.3112
      5 C          20.5156   74.1912   -0.7160 C.3     1  UNL1        0.1811
      6 C          22.7549   73.0551    1.8592 C.3     1  UNL1        0.2383
      7 C          21.9545   71.7915    1.4535 C.3     1  UNL1        0.1895
      8 O          22.7451   70.6125    1.6169 O.3     1  UNL1       -0.3779
      9 C          21.6629   72.0578   -0.0437 C.3     1  UNL1        0.1713
     10 C          21.8191   73.5833   -0.1920 C.3     1  UNL1        0.1764
     11 O          22.1159   74.1117    1.1103 O.3     1  UNL1       -0.3308
     12 O          22.6112   71.3753   -0.8657 O.3     1  UNL1       -0.3794
     13 H          22.2878   69.7954    1.3765 H       1  UNL1        0.2106
     14 H          22.5972   70.4136   -0.7681 H       1  UNL1        0.2105
     15 N          22.6387   73.2992    3.2986 N.ar    1  UNL1       -0.2551
     16 C          21.5449   72.8800    3.9594 C.ar    1  UNL1        0.3323
     17 N          21.4113   73.0910    5.2822 N.ar    1  UNL1       -0.2743
     18 C          22.3808   73.7290    5.9690 C.ar    1  UNL1        0.2626
     19 C          23.5380   74.1748    5.2863 C.ar    1  UNL1        0.0795
     20 C          23.6473   73.9460    3.9607 C.ar    1  UNL1        0.0869
     21 O          20.6629   72.3032    3.3530 O.2     1  UNL1       -0.2464
     22 O          22.2613   73.9202    7.1664 O.2     1  UNL1       -0.2670
     23 H          20.6157   72.7832    5.7430 H       1  UNL1        0.1734
     24 O          20.1355   72.7715   -3.2827 O.3     1  UNL1       -0.2703
     25 P          20.5313   71.3308   -3.8833 P.3     1  UNL1        0.2208
     26 O          22.1239   71.1208   -3.7676 O.3     1  UNL1       -0.4371
     27 O          19.8377   70.2703   -3.1200 O.2     1  UNL1       -0.5170
     28 O          20.0906   71.2549   -5.4302 O.3     1  UNL1       -0.2865
     29 C          19.2232   72.2123   -6.0404 C.3     1  UNL1        0.2611
     30 C          17.7683   71.7736   -5.8575 C.3     1  UNL1        0.1582
     31 C          17.5549   70.4334   -6.5679 C.3     1  UNL1        0.1625
     32 C          17.9347   70.5840   -8.0436 C.3     1  UNL1        0.1686
     33 C          19.3836   71.0685   -8.1422 C.3     1  UNL1        0.1760
     34 O          16.1812   70.0520   -6.4648 O.3     1  UNL1       -0.3801
     35 O          17.0689   71.5357   -8.6649 O.3     1  UNL1       -0.3794
     36 O          19.5206   72.3028   -7.4353 O.3     1  UNL1       -0.3263
     37 H          15.9740   69.2102   -6.8931 H       1  UNL1        0.2105
     38 H          17.2531   71.6821   -9.6033 H       1  UNL1        0.2105
     39 C          16.2910   72.0249   -3.9360 C.2     1  UNL1        0.2231
     40 C          15.9924   71.8694   -2.4679 C.3     1  UNL1        0.0946
     41 N          17.4787   71.6223   -4.4293 N.am    1  UNL1       -0.2994
     42 O          15.4620   72.5129   -4.6754 O.2     1  UNL1       -0.2751
     43 H          18.1422   71.2330   -3.8383 H       1  UNL1        0.1496
     44 C          19.7519   71.2787   -9.6121 C.3     1  UNL1        0.1693
     45 O          18.8614   70.5269  -10.4393 O.3     1  UNL1       -0.3794
     46 H          19.0364   70.6129  -11.3864 H       1  UNL1        0.2105
@<TRIPOS>BOND
     1    29    30    1
     2    30    41    1
     3    30    31    1
     4    31    34    1
     5    31    32    1
     6    32    35    1
     7    32    33    1
     8    33    36    1
     9    33    44    1
    10    39    40    1
    11    39    42    2
    12    39    41   am
    13    41    43    1
    14    29    28    1
    15    34    37    1
    16    35    38    1
    17    29    36    1
    18    44    45    1
    19    45    46    1
    20    15     6    1
    21    15    16   ar
    22    16    21    2
    23    16    17   ar
    24    17    23    1
    25    17    18   ar
    26    18    19   ar
    27    19    20   ar
    28    15    20   ar
    29    18    22    2
    30     6     7    1
    31     6    11    1
    32     7     9    1
    33     7     8    1
    34     8    13    1
    35     9    10    1
    36     9    12    1
    37    10     5    1
    38    10    11    1
    39    12    14    1
    40     5     4    1
    41     4     1    1
    42     1     2    1
    43     1    24    1
    44     1     3    2
    45    24    25    1
    46    28    25    1
    47    25    26    1
    48    25    27    2
@<TRIPOS>MOLECULE
UD2
 46 48 0 0 0
SMALL
GASTEIGER

@<TRIPOS>ATOM
      1 P          23.2609   74.9102   -4.2275 P.3     1  UNL1        0.2189
      2 O          23.1919   75.7481   -5.6003 O.3     1  UNL1       -0.4371
      3 O          24.6492   74.4540   -3.9965 O.2     1  UNL1       -0.5170
      4 O          22.7927   75.8463   -3.0035 O.3     1  UNL1       -0.3112
      5 C          23.0219   75.5078   -1.6345 C.3     1  UNL1        0.1811
      6 C          21.1042   73.7363    0.8396 C.3     1  UNL1        0.2383
      7 C          20.2543   74.9904    0.5121 C.3     1  UNL1        0.1895
      8 O          18.8601   74.7149    0.6614 O.3     1  UNL1       -0.3779
      9 C          20.6108   75.2464   -0.9727 C.3     1  UNL1        0.1713
     10 C          21.9530   74.5159   -1.1689 C.3     1  UNL1        0.1764
     11 O          22.3253   73.9565    0.1007 O.3     1  UNL1       -0.3308
     12 O          19.6099   74.6930   -1.8287 O.3     1  UNL1       -0.3794
     13 H          18.2870   75.4691    0.4682 H       1  UNL1        0.2106
     14 H          18.7307   75.0756   -1.7056 H       1  UNL1        0.2105
     15 N          21.3770   73.6589    2.2764 N.ar    1  UNL1       -0.2551
     16 C          21.4745   72.4571    2.8724 C.ar    1  UNL1        0.3323
     17 N          21.7243   72.3561    4.1913 N.ar    1  UNL1       -0.2743
     18 C          21.8833   73.4671    4.9390 C.ar    1  UNL1        0.2626
     19 C          21.7842   74.7386    4.3245 C.ar    1  UNL1        0.0795
     20 C          21.5372   74.8101    2.9996 C.ar    1  UNL1        0.0869
     21 O          21.3336   71.4470    2.2105 O.2     1  UNL1       -0.2464
     22 O          22.1099   73.3771    6.1328 O.2     1  UNL1       -0.2670
     23 H          21.7903   71.4819    4.6053 H       1  UNL1        0.1734
     24 O          22.2856   73.6327   -4.3287 O.3     1  UNL1       -0.2703
     25 P          21.3583   73.0238   -5.4959 P.3     1  UNL1        0.2208
     26 O          20.4615   74.1985   -6.1358 O.3     1  UNL1       -0.4371
     27 O          22.2137   72.4292   -6.5461 O.2     1  UNL1       -0.5170
     28 O          20.3965   71.8888   -4.8799 O.3     1  UNL1       -0.2865
     29 C          19.1445   72.1830   -4.2577 C.3     1  UNL1        0.2611
     30 C          18.9518   71.2738   -3.0416 C.3     1  UNL1        0.1582
     31 C          18.9084   69.8151   -3.5073 C.3     1  UNL1        0.1625
     32 C          17.7871   69.6524   -4.5371 C.3     1  UNL1        0.1686
     33 C          18.0248   70.6243   -5.6959 C.3     1  UNL1        0.1760
     34 O          18.6553   68.9640   -2.3871 O.3     1  UNL1       -0.3801
     35 O          16.5293   69.9390   -3.9231 O.3     1  UNL1       -0.3794
     36 O          18.0853   71.9597   -5.1908 O.3     1  UNL1       -0.3263
     37 H          18.6153   68.0236   -2.6093 H       1  UNL1        0.2105
     38 H          15.7719   69.8562   -4.5193 H       1  UNL1        0.2105
     39 C          21.1353   70.6362   -2.1678 C.2     1  UNL1        0.2231
     40 C          22.2839   70.8248   -1.2119 C.3     1  UNL1        0.0946
     41 N          20.0686   71.4578   -2.1113 N.am    1  UNL1       -0.2994
     42 O          21.1699   69.7440   -2.9894 O.2     1  UNL1       -0.2751
     43 H          20.0401   72.1706   -1.4539 H       1  UNL1        0.1496
     44 C          16.8768   70.5103   -6.7006 C.3     1  UNL1        0.1693
     45 O          16.2044   69.2627   -6.5171 O.3     1  UNL1       -0.3794
     46 H          15.4632   69.1220   -7.1219 H       1  UNL1        0.2105
@<TRIPOS>BOND
     1    29    30    1
     2    30    41    1
     3    30    31    1
     4    31    34    1
     5    31    32    1
     6    32    35    1
     7    32    33    1
     8    33    36    1
     9    33    44    1
    10    39    40    1
    11    39    42    2
    12    39    41   am
    13    41    43    1
    14    29    28    1
    15    34    37    1
    16    35    38    1
    17    29    36    1
    18    44    45    1
    19    45    46    1
    20    15     6    1
    21    15    16   ar
    22    16    21    2
    23    16    17   ar
    24    17    23    1
    25    17    18   ar
    26    18    19   ar
    27    19    20   ar
    28    15    20   ar
    29    18    22    2
    30     6     7    1
    31     6    11    1
    32     7     9    1
    33     7     8    1
    34     8    13    1
    35     9    10    1
    36     9    12    1
    37    10     5    1
    38    10    11    1
    39    12    14    1
    40     5     4    1
    41     4     1    1
    42     1     2    1
    43     1    24    1
    44     1     3    2
    45    24    25    1
    46    28    25    1
    47    25    26    1
    48    25    27    2
@<TRIPOS>MOLECULE
UD2
 46 48 0 0 0
SMALL
GASTEIGER

@<TRIPOS>ATOM
      1 P          22.3001   71.3448   -2.8017 P.3     1  UNL1        0.2189
      2 O          23.5514   71.9405   -3.6206 O.3     1  UNL1       -0.4371
      3 O          22.7795   70.3345   -1.8330 O.2     1  UNL1       -0.5170
      4 O          21.5596   72.5370   -2.0116 O.3     1  UNL1       -0.3112
      5 C          22.2482   73.4401   -1.1447 C.3     1  UNL1        0.1811
      6 C          22.7544   73.2455    2.4110 C.3     1  UNL1        0.2383
      7 C          21.2795   72.8169    2.2033 C.3     1  UNL1        0.1895
      8 O          20.8754   71.8788    3.2025 O.3     1  UNL1       -0.3779
      9 C          21.3282   72.1499    0.8068 C.3     1  UNL1        0.1713
     10 C          22.6037   72.7229    0.1601 C.3     1  UNL1        0.1764
     11 O          23.1733   73.6565    1.0914 O.3     1  UNL1       -0.3308
     12 O          21.4262   70.7305    0.9351 O.3     1  UNL1       -0.3794
     13 H          19.9597   71.5810    3.1154 H       1  UNL1        0.2106
     14 H          20.6761   70.3230    1.3888 H       1  UNL1        0.2105
     15 N          22.8386   74.3650    3.3515 N.ar    1  UNL1       -0.2551
     16 C          21.8715   75.2995    3.3635 C.ar    1  UNL1        0.3323
     17 N          21.9233   76.3393    4.2170 N.ar    1  UNL1       -0.2743
     18 C          22.9528   76.4584    5.0799 C.ar    1  UNL1        0.2626
     19 C          23.9773   75.4814    5.0788 C.ar    1  UNL1        0.0795
     20 C          23.8975   74.4473    4.2152 C.ar    1  UNL1        0.0869
     21 O          20.9372   75.2048    2.5912 O.2     1  UNL1       -0.2464
     22 O          23.0007   77.3987    5.8532 O.2     1  UNL1       -0.2670
     23 H          21.2182   77.0048    4.2117 H       1  UNL1        0.1734
     24 O          21.2656   70.6576   -3.8267 O.3     1  UNL1       -0.2703
     25 P          19.7229   70.2075   -3.7242 P.3     1  UNL1        0.2208
     26 O          19.6421   68.6108   -3.5292 O.3     1  UNL1       -0.4371
     27 O          19.0889   70.8778   -2.5679 O.2     1  UNL1       -0.5170
     28 O          18.9518   70.6232   -5.0752 O.3     1  UNL1       -0.2865
     29 C          19.2868   71.7847   -5.8368 C.3     1  UNL1        0.2611
     30 C          18.0374   72.6475   -6.0296 C.3     1  UNL1        0.1582
     31 C          16.9970   71.8535   -6.8256 C.3     1  UNL1        0.1625
     32 C          17.6128   71.4180   -8.1580 C.3     1  UNL1        0.1686
     33 C          18.8789   70.6023   -7.8830 C.3     1  UNL1        0.1760
     34 O          15.8555   72.6774   -7.0737 O.3     1  UNL1       -0.3801
     35 O          17.9464   72.5728   -8.9302 O.3     1  UNL1       -0.3794
     36 O          19.7917   71.3874   -7.1133 O.3     1  UNL1       -0.3263
     37 H          15.1546   72.2374   -7.5740 H       1  UNL1        0.2105
     38 H          18.3430   72.3713   -9.7893 H       1  UNL1        0.2105
     39 C          16.5152   72.2494   -4.1689 C.2     1  UNL1        0.2231
     40 C          15.9457   72.6173   -2.8240 C.3     1  UNL1        0.0946
     41 N          17.4838   73.0062   -4.7214 N.am    1  UNL1       -0.2994
     42 O          16.1019   71.2712   -4.7559 O.2     1  UNL1       -0.2751
     43 H          17.8138   73.7889   -4.2530 H       1  UNL1        0.1496
     44 C          19.5332   70.2138   -9.2102 C.3     1  UNL1        0.1693
     45 O          18.5418   70.1796  -10.2389 O.3     1  UNL1       -0.3794
     46 H          18.8862   69.9397  -11.1100 H       1  UNL1        0.2105
@<TRIPOS>BOND
     1    29    30    1
     2    30    41    1
     3    30    31    1
     4    31    34    1
     5    31    32    1
     6    32    35    1
     7    32    33    1
     8    33    36    1
     9    33    44    1
    10    39    40    1
    11    39    42    2
    12    39    41   am
    13    41    43    1
    14    29    28    1
    15    34    37    1
    16    35    38    1
    17    29    36    1
    18    44    45    1
    19    45    46    1
    20    15     6    1
    21    15    16   ar
    22    16    21    2
    23    16    17   ar
    24    17    23    1
    25    17    18   ar
    26    18    19   ar
    27    19    20   ar
    28    15    20   ar
    29    18    22    2
    30     6     7    1
    31     6    11    1
    32     7     9    1
    33     7     8    1
    34     8    13    1
    35     9    10    1
    36     9    12    1
    37    10     5    1
    38    10    11    1
    39    12    14    1
    40     5     4    1
    41     4     1    1
    42     1     2    1
    43     1    24    1
    44     1     3    2
    45    24    25    1
    46    28    25    1
    47    25    26    1
    48    25    27    2
@<TRIPOS>MOLECULE
UD2
 46 48 0 0 0
SMALL
GASTEIGER

@<TRIPOS>ATOM
      1 P          23.0660   72.6106   -3.9044 P.3     1  UNL1        0.2189
      2 O          24.3105   73.6149   -3.7207 O.3     1  UNL1       -0.4371
      3 O          23.4669   71.2470   -3.4935 O.2     1  UNL1       -0.5170
      4 O          21.8365   73.1070   -2.9901 O.3     1  UNL1       -0.3112
      5 C          21.3395   72.3553   -1.8814 C.3     1  UNL1        0.1811
      6 C          20.4875   74.0179    1.1921 C.3     1  UNL1        0.2383
      7 C          21.3415   75.0510    0.4140 C.3     1  UNL1        0.1895
      8 O          20.9404   76.3856    0.7296 O.3     1  UNL1       -0.3779
      9 C          21.0067   74.7070   -1.0581 C.3     1  UNL1        0.1713
     10 C          20.4794   73.2608   -0.9963 C.3     1  UNL1        0.1764
     11 O          20.5661   72.8319    0.3719 O.3     1  UNL1       -0.3308
     12 O          19.9984   75.5865   -1.5589 O.3     1  UNL1       -0.3794
     13 H          21.4460   77.0681    0.2679 H       1  UNL1        0.2106
     14 H          20.2556   76.5183   -1.5646 H       1  UNL1        0.2105
     15 N          21.0600   73.7685    2.5169 N.ar    1  UNL1       -0.2551
     16 C          21.3507   72.5098    2.8910 C.ar    1  UNL1        0.3323
     17 N          21.8774   72.2512    4.1025 N.ar    1  UNL1       -0.2743
     18 C          22.1247   73.2587    4.9641 C.ar    1  UNL1        0.2626
     19 C          21.8246   74.5887    4.5830 C.ar    1  UNL1        0.0795
     20 C          21.3011   74.8192    3.3606 C.ar    1  UNL1        0.0869
     21 O          21.1332   71.5915    2.1242 O.2     1  UNL1       -0.2464
     22 O          22.6018   73.0261    6.0608 O.2     1  UNL1       -0.2670
     23 H          22.0799   71.3377    4.3568 H       1  UNL1        0.1734
     24 O          22.6126   72.5944   -5.4495 O.3     1  UNL1       -0.2703
     25 P          21.2845   73.0639   -6.2297 P.3     1  UNL1        0.2208
     26 O          21.1452   74.6656   -6.1353 O.3     1  UNL1       -0.4371
     27 O          21.3777   72.6604   -7.6499 O.2     1  UNL1       -0.5170
     28 O          19.9948   72.3722   -5.5583 O.3     1  UNL1       -0.2865
     29 C          19.2951   71.2812   -6.1595 C.3     1  UNL1        0.2611
     30 C          17.7995   71.6017   -6.2154 C.3     1  UNL1        0.1582
     31 C          17.2676   71.7655   -4.7883 C.3     1  UNL1        0.1625
     32 C          17.5581   70.4875   -3.9968 C.3     1  UNL1        0.1686
     33 C          19.0635   70.2099   -4.0264 C.3     1  UNL1        0.1760
     34 O          15.8568   71.9924   -4.8279 O.3     1  UNL1       -0.3801
     35 O          16.8580   69.3907   -4.5868 O.3     1  UNL1       -0.3794
     36 O          19.4992   70.0991   -5.3828 O.3     1  UNL1       -0.3263
     37 H          15.4525   72.1062   -3.9569 H       1  UNL1        0.2105
     38 H          16.9970   68.5461   -4.1359 H       1  UNL1        0.2105
     39 C          16.5822   72.9416   -7.8464 C.2     1  UNL1        0.2231
     40 C          16.3693   74.2207   -8.6128 C.3     1  UNL1        0.0946
     41 N          17.5933   72.8461   -6.9607 N.am    1  UNL1       -0.2994
     42 O          15.8430   71.9964   -8.0262 O.2     1  UNL1       -0.2751
     43 H          18.1851   73.6013   -6.8173 H       1  UNL1        0.1496
     44 C          19.3553   68.9021   -3.2881 C.3     1  UNL1        0.1693
     45 O          18.2851   68.6147   -2.3856 O.3     1  UNL1       -0.3794
     46 H          18.4031   67.7975   -1.8822 H       1  UNL1        0.2105
@<TRIPOS>BOND
     1    29    30    1
     2    30    41    1
     3    30    31    1
     4    31    34    1
     5    31    32    1
     6    32    35    1
     7    32    33    1
     8    33    36    1
     9    33    44    1
    10    39    40    1
    11    39    42    2
    12    39    41   am
    13    41    43    1
    14    29    28    1
    15    34    37    1
    16    35    38    1
    17    29    36    1
    18    44    45    1
    19    45    46    1
    20    15     6    1
    21    15    16   ar
    22    16    21    2
    23    16    17   ar
    24    17    23    1
    25    17    18   ar
    26    18    19   ar
    27    19    20   ar
    28    15    20   ar
    29    18    22    2
    30     6     7    1
    31     6    11    1
    32     7     9    1
    33     7     8    1
    34     8    13    1
    35     9    10    1
    36     9    12    1
    37    10     5    1
    38    10    11    1
    39    12    14    1
    40     5     4    1
    41     4     1    1
    42     1     2    1
    43     1    24    1
    44     1     3    2
    45    24    25    1
    46    28    25    1
    47    25    26    1
    48    25    27    2
