@<TRIPOS>MOLECULE
*****
 43 45 0 0 0
SMALL
GASTEIGER

@<TRIPOS>ATOM
      1 P          22.9345   71.6886   -2.6602 P.3     1  UNL1        0.2189
      2 O          23.7825   73.0454   -2.9027 O.co2   1  UNL1       -0.4371
      3 O          23.5809   70.4367   -3.1765 O.2     1  UNL1       -0.5170
      4 O          21.4748   72.0285   -3.2697 O.3     1  UNL1       -0.3112
      5 C          20.6187   70.9545   -3.6133 C.3     1  UNL1        0.1811
      6 O          18.7550   71.9753   -4.7367 O.3     1  UNL1       -0.3308
      7 O          17.0478   70.8168   -2.5607 O.3     1  UNL1       -0.3794
      8 O          16.6420   69.0810   -4.6243 O.3     1  UNL1       -0.3779
      9 C          18.2060   70.2677   -3.1897 C.3     1  UNL1        0.1713
     10 C          17.8660   69.7845   -4.5837 C.3     1  UNL1        0.1895
     11 C          19.1717   71.4097   -3.4751 C.3     1  UNL1        0.1764
     12 C          17.8187   71.0860   -5.3658 C.3     1  UNL1        0.2383
     13 H          16.4160   70.1058   -2.3686 H       1  UNL1        0.2105
     14 H          16.7236   68.2605   -4.1123 H       1  UNL1        0.2106
     15 O          16.0090   70.4576   -7.4411 O.2     1  UNL1       -0.2464
     16 O          19.3596   70.4440  -10.6061 O.2     1  UNL1       -0.2670
     17 N          18.1912   70.9126   -6.7413 N.ar    1  UNL1       -0.2551
     18 N          17.6797   70.4504   -9.0153 N.ar    1  UNL1       -0.2743
     19 C          17.2046   70.5979   -7.7055 C.ar    1  UNL1        0.3323
     20 C          19.5195   71.0557   -7.1235 C.ar    1  UNL1        0.0869
     21 C          19.9572   70.9123   -8.3759 C.ar    1  UNL1        0.0795
     22 C          18.9907   70.5824   -9.4438 C.ar    1  UNL1        0.2626
     23 H          17.0116   70.2292   -9.7038 H       1  UNL1        0.1734
     24 O          22.6746   71.7035   -1.0648 O.3     1  UNL1       -0.2703
     25 P          22.0914   70.5670   -0.0738 P.3     1  UNL1        0.2208
     26 O          23.4213   69.7823    0.4122 O.co2   1  UNL1       -0.4371
     27 O          21.0458   69.6864   -0.6944 O.2     1  UNL1       -0.5170
     28 O          21.5966   71.3765    1.2309 O.3     1  UNL1       -0.2858
     29 O          22.3480   73.6107    1.0005 O.3     1  UNL1       -0.3226
     30 O          20.3430   73.7660    4.6094 O.3     1  UNL1       -0.3794
     31 O          22.0670   71.4960    3.9697 O.3     1  UNL1       -0.3775
     32 O          19.1282   74.8826    2.2160 O.3     1  UNL1       -0.3792
     33 C          20.6059   73.3071    3.2834 C.3     1  UNL1        0.1718
     34 C          22.0092   72.7037    3.2195 C.3     1  UNL1        0.1968
     35 C          20.4984   74.5058    2.3381 C.3     1  UNL1        0.1723
     36 C          22.4139   72.4119    1.7738 C.3     1  UNL1        0.2706
     37 C          21.0379   74.1712    0.9505 C.3     1  UNL1        0.1830
     38 H          20.4057   73.0211    5.2279 H       1  UNL1        0.2105
     39 H          21.8111   71.6737    4.8880 H       1  UNL1        0.2106
     40 H          18.7727   75.0980    3.0923 H       1  UNL1        0.2106
     41 O          21.1969   76.5113    0.9393 O.co2   1  UNL1       -0.5466
     42 O          21.4096   75.4447   -1.0648 O.co2   1  UNL1       -0.5466
     43 C          21.2350   75.4135    0.1442 C.2     1  UNL1        0.0799
@<TRIPOS>UNITY_ATOM_ATTR
2 1
charge -1
26 1
charge -1
41 1
charge -1
@<TRIPOS>BOND
     1     1     4    1
     2     1    24    1
     3     1     2    1
     4     1     3    2
     5    25    28    1
     6    25    24    1
     7    25    26    1
     8    25    27    2
     9     6    11    1
    10     6    12    1
    11    29    36    1
    12    29    37    1
    13     7     9    1
    14     7    13    1
    15     8    10    1
    16     8    14    1
    17     4     5    1
    18    28    36    1
    19    30    33    1
    20    30    38    1
    21    31    34    1
    22    31    39    1
    23    32    35    1
    24    32    40    1
    25    41    43   ar
    26    15    19    2
    27    42    43   ar
    28    16    22    2
    29    17    12    1
    30    17    19   ar
    31    17    20   ar
    32    18    19   ar
    33    18    22   ar
    34    18    23    1
    35     9    10    1
    36     9    11    1
    37    10    12    1
    38    11     5    1
    39    33    34    1
    40    33    35    1
    41    34    36    1
    42    35    37    1
    43    37    43    1
    44    20    21   ar
    45    21    22   ar
@<TRIPOS>MOLECULE
*****
 43 45 0 0 0
SMALL
GASTEIGER

@<TRIPOS>ATOM
      1 P          22.7783   71.4801   -2.8453 P.3     1  UNL1        0.2189
      2 O          23.1752   72.9331   -3.4370 O.co2   1  UNL1       -0.4371
      3 O          23.6699   70.3540   -3.2797 O.2     1  UNL1       -0.5170
      4 O          21.2126   71.3219   -3.2216 O.3     1  UNL1       -0.3112
      5 C          20.5295   72.4405   -3.7569 C.3     1  UNL1        0.1811
      6 O          18.3554   72.4147   -4.7816 O.3     1  UNL1       -0.3308
      7 O          17.4131   70.9990   -2.3119 O.3     1  UNL1       -0.3794
      8 O          17.6817   68.9595   -4.1020 O.3     1  UNL1       -0.3779
      9 C          18.6620   70.8898   -2.9951 C.3     1  UNL1        0.1713
     10 C          18.4909   70.1036   -4.2777 C.3     1  UNL1        0.1895
     11 C          19.0350   72.2712   -3.5156 C.3     1  UNL1        0.1764
     12 C          17.8560   71.1334   -5.1965 C.3     1  UNL1        0.2383
     13 H          17.1538   70.1285   -1.9703 H       1  UNL1        0.2105
     14 H          18.1297   68.3346   -3.5097 H       1  UNL1        0.2106
     15 O          16.0184   70.3544   -7.1948 O.2     1  UNL1       -0.2464
     16 O          19.2801   70.3551  -10.4514 O.2     1  UNL1       -0.2670
     17 N          18.1981   70.9229   -6.5748 N.ar    1  UNL1       -0.2551
     18 N          17.6449   70.3545   -8.8147 N.ar    1  UNL1       -0.2743
     19 C          17.1996   70.5325   -7.4982 C.ar    1  UNL1        0.3323
     20 C          19.5086   71.1047   -6.9997 C.ar    1  UNL1        0.0869
     21 C          19.9178   70.9314   -8.2579 C.ar    1  UNL1        0.0795
     22 C          18.9373   70.5226   -9.2849 C.ar    1  UNL1        0.2626
     23 H          16.9682   70.0807   -9.4753 H       1  UNL1        0.1734
     24 O          22.7446   71.7350   -1.2495 O.3     1  UNL1       -0.2703
     25 P          22.3522   70.7539   -0.0259 P.3     1  UNL1        0.2208
     26 O          23.6671   69.8243    0.1390 O.co2   1  UNL1       -0.4371
     27 O          21.0768   69.9898   -0.2339 O.2     1  UNL1       -0.5170
     28 O          22.3587   71.7034    1.2783 O.3     1  UNL1       -0.2858
     29 O          21.1778   72.3476    3.2275 O.3     1  UNL1       -0.3226
     30 O          21.2370   75.8742    1.0764 O.3     1  UNL1       -0.3794
     31 O          20.7123   73.3314   -0.2628 O.3     1  UNL1       -0.3775
     32 O          23.0055   75.5264    3.3572 O.3     1  UNL1       -0.3792
     33 C          21.7334   74.6135    1.5260 C.3     1  UNL1        0.1718
     34 C          20.7448   73.5101    1.1485 C.3     1  UNL1        0.1968
     35 C          21.8970   74.6845    3.0459 C.3     1  UNL1        0.1723
     36 C          21.1256   72.1847    1.8097 C.3     1  UNL1        0.2706
     37 C          22.1502   73.3037    3.6440 C.3     1  UNL1        0.1830
     38 H          21.1250   75.8529    0.1129 H       1  UNL1        0.2105
     39 H          20.4716   74.1686   -0.6888 H       1  UNL1        0.2106
     40 H          22.8570   76.4085    2.9820 H       1  UNL1        0.2106
     41 O          20.7322   73.7403    5.4607 O.co2   1  UNL1       -0.5466
     42 O          22.8429   73.0218    5.9379 O.co2   1  UNL1       -0.5466
     43 C          21.9811   73.3294    5.1283 C.2     1  UNL1        0.0799
@<TRIPOS>UNITY_ATOM_ATTR
2 1
charge -1
26 1
charge -1
41 1
charge -1
@<TRIPOS>BOND
     1     1     4    1
     2     1    24    1
     3     1     2    1
     4     1     3    2
     5    25    28    1
     6    25    24    1
     7    25    26    1
     8    25    27    2
     9     6    11    1
    10     6    12    1
    11    29    36    1
    12    29    37    1
    13     7     9    1
    14     7    13    1
    15     8    10    1
    16     8    14    1
    17     4     5    1
    18    28    36    1
    19    30    33    1
    20    30    38    1
    21    31    34    1
    22    31    39    1
    23    32    35    1
    24    32    40    1
    25    41    43   ar
    26    15    19    2
    27    42    43   ar
    28    16    22    2
    29    17    12    1
    30    17    19   ar
    31    17    20   ar
    32    18    19   ar
    33    18    22   ar
    34    18    23    1
    35     9    10    1
    36     9    11    1
    37    10    12    1
    38    11     5    1
    39    33    34    1
    40    33    35    1
    41    34    36    1
    42    35    37    1
    43    37    43    1
    44    20    21   ar
    45    21    22   ar
@<TRIPOS>MOLECULE
*****
 43 45 0 0 0
SMALL
GASTEIGER

@<TRIPOS>ATOM
      1 P          22.0547   73.9329   -6.2567 P.3     1  UNL1        0.2189
      2 O          22.2694   75.3867   -6.9344 O.co2   1  UNL1       -0.4371
      3 O          22.8086   72.8119   -6.9099 O.2     1  UNL1       -0.5170
      4 O          20.4466   73.7619   -6.2052 O.3     1  UNL1       -0.3112
      5 C          19.6697   74.3640   -7.2243 C.3     1  UNL1        0.1811
      6 O          19.6228   72.0230   -7.7678 O.3     1  UNL1       -0.3308
      7 O          17.9732   72.7992  -10.1486 O.3     1  UNL1       -0.3794
      8 O          16.0967   71.8742   -8.3995 O.3     1  UNL1       -0.3779
      9 C          17.9774   73.3533   -8.8327 C.3     1  UNL1        0.1713
     10 C          17.2880   72.4137   -7.8662 C.3     1  UNL1        0.1895
     11 C          19.4117   73.3398   -8.3219 C.3     1  UNL1        0.1764
     12 C          18.3562   71.3583   -7.6362 C.3     1  UNL1        0.2383
     13 H          17.0672   72.7973  -10.4961 H       1  UNL1        0.2105
     14 H          15.4487   72.5853   -8.5274 H       1  UNL1        0.2106
     15 O          16.2354   69.7094   -6.7647 O.2     1  UNL1       -0.2464
     16 O          18.1370   69.1515   -2.6033 O.2     1  UNL1       -0.2670
     17 N          18.2718   70.7688   -6.3300 N.ar    1  UNL1       -0.2551
     18 N          17.1840   69.4339   -4.6926 N.ar    1  UNL1       -0.2743
     19 C          17.1638   69.9561   -5.9926 C.ar    1  UNL1        0.3323
     20 C          19.2792   70.9960   -5.4001 C.ar    1  UNL1        0.0869
     21 C          19.2846   70.4913   -4.1648 C.ar    1  UNL1        0.0795
     22 C          18.1629   69.6322   -3.7323 C.ar    1  UNL1        0.2626
     23 H          16.4220   68.8667   -4.4339 H       1  UNL1        0.1734
     24 O          22.4422   74.1931   -4.7092 O.3     1  UNL1       -0.2703
     25 P          23.2187   73.2633   -3.6386 P.3     1  UNL1        0.2208
     26 O          24.6662   73.9765   -3.5104 O.co2   1  UNL1       -0.4371
     27 O          23.2762   71.8103   -4.0124 O.2     1  UNL1       -0.5170
     28 O          22.4904   73.5641   -2.2309 O.3     1  UNL1       -0.2858
     29 O          21.6794   71.5266   -1.3367 O.3     1  UNL1       -0.3226
     30 O          20.4065   74.2529    1.4944 O.3     1  UNL1       -0.3794
     31 O          20.1955   74.8678   -1.3537 O.3     1  UNL1       -0.3775
     32 O          22.6890   72.5380    2.0427 O.3     1  UNL1       -0.3792
     33 C          21.2756   73.7237    0.4930 C.3     1  UNL1        0.1718
     34 C          20.5133   73.5856   -0.8251 C.3     1  UNL1        0.1968
     35 C          21.7678   72.3552    0.9692 C.3     1  UNL1        0.1723
     36 C          21.3377   72.8125   -1.8554 C.3     1  UNL1        0.2706
     37 C          22.4700   71.5947   -0.1520 C.3     1  UNL1        0.1830
     38 H          20.0811   75.1227    1.2136 H       1  UNL1        0.2105
     39 H          19.6726   75.3640   -0.7050 H       1  UNL1        0.2106
     40 H          22.2545   73.0211    2.7629 H       1  UNL1        0.2106
     41 O          21.4671   69.6037    0.5771 O.co2   1  UNL1       -0.5466
     42 O          23.7136   69.5556    0.1899 O.co2   1  UNL1       -0.5466
     43 C          22.6505   70.1574    0.2140 C.2     1  UNL1        0.0799
@<TRIPOS>UNITY_ATOM_ATTR
2 1
charge -1
26 1
charge -1
41 1
charge -1
@<TRIPOS>BOND
     1     1     4    1
     2     1    24    1
     3     1     2    1
     4     1     3    2
     5    25    28    1
     6    25    24    1
     7    25    26    1
     8    25    27    2
     9     6    11    1
    10     6    12    1
    11    29    36    1
    12    29    37    1
    13     7     9    1
    14     7    13    1
    15     8    10    1
    16     8    14    1
    17     4     5    1
    18    28    36    1
    19    30    33    1
    20    30    38    1
    21    31    34    1
    22    31    39    1
    23    32    35    1
    24    32    40    1
    25    41    43   ar
    26    15    19    2
    27    42    43   ar
    28    16    22    2
    29    17    12    1
    30    17    19   ar
    31    17    20   ar
    32    18    19   ar
    33    18    22   ar
    34    18    23    1
    35     9    10    1
    36     9    11    1
    37    10    12    1
    38    11     5    1
    39    33    34    1
    40    33    35    1
    41    34    36    1
    42    35    37    1
    43    37    43    1
    44    20    21   ar
    45    21    22   ar
@<TRIPOS>MOLECULE
*****
 43 45 0 0 0
SMALL
GASTEIGER

@<TRIPOS>ATOM
      1 P          21.6154   70.3459   -1.0186 P.3     1  UNL1        0.2189
      2 O          23.1066   70.8064   -1.4466 O.co2   1  UNL1       -0.4371
      3 O          21.5384   69.5473    0.2495 O.2     1  UNL1       -0.5170
      4 O          21.0383   69.6181   -2.3435 O.3     1  UNL1       -0.3112
      5 C          20.7484   70.4122   -3.4792 C.3     1  UNL1        0.1811
      6 O          19.0257   71.7111   -4.5388 O.3     1  UNL1       -0.3308
      7 O          17.1884   70.6667   -2.4116 O.3     1  UNL1       -0.3794
      8 O          16.5694   69.0995   -4.5556 O.3     1  UNL1       -0.3779
      9 C          18.2691   70.0100   -3.0744 C.3     1  UNL1        0.1713
     10 C          17.8713   69.6427   -4.4883 C.3     1  UNL1        0.1895
     11 C          19.3692   71.0361   -3.3093 C.3     1  UNL1        0.1764
     12 C          17.9859   70.9773   -5.2049 C.3     1  UNL1        0.2383
     13 H          16.4731   70.0309   -2.2507 H       1  UNL1        0.2105
     14 H          16.5484   68.2508   -4.0853 H       1  UNL1        0.2106
     15 O          16.1313   70.4383   -7.2656 O.2     1  UNL1       -0.2464
     16 O          19.4327   70.4231  -10.4819 O.2     1  UNL1       -0.2670
     17 N          18.3336   70.8277   -6.5897 N.ar    1  UNL1       -0.2551
     18 N          17.7775   70.4302   -8.8654 N.ar    1  UNL1       -0.2743
     19 C          17.3256   70.5578   -7.5453 C.ar    1  UNL1        0.3323
     20 C          19.6589   70.9497   -6.9891 C.ar    1  UNL1        0.0869
     21 C          20.0743   70.8257   -8.2512 C.ar    1  UNL1        0.0795
     22 C          19.0845   70.5426   -9.3112 C.ar    1  UNL1        0.2626
     23 H          17.0943   70.2402   -9.5484 H       1  UNL1        0.1734
     24 O          20.8000   71.7413   -0.9862 O.3     1  UNL1       -0.2703
     25 P          21.2730   73.2383   -0.6003 P.3     1  UNL1        0.2208
     26 O          19.9641   74.1344   -0.9231 O.co2   1  UNL1       -0.4371
     27 O          22.5205   73.6903   -1.3027 O.2     1  UNL1       -0.5170
     28 O          21.3757   73.2328    1.0096 O.3     1  UNL1       -0.2858
     29 O          22.7892   74.8507    2.0064 O.3     1  UNL1       -0.3226
     30 O          22.0917   72.2826    5.1665 O.3     1  UNL1       -0.3794
     31 O          22.6143   71.2312    2.4914 O.3     1  UNL1       -0.3775
     32 O          20.7401   74.8537    5.0500 O.3     1  UNL1       -0.3792
     33 C          21.7815   72.9756    3.9576 C.3     1  UNL1        0.1718
     34 C          22.7890   72.5905    2.8740 C.3     1  UNL1        0.1968
     35 C          21.8536   74.4776    4.2418 C.3     1  UNL1        0.1723
     36 C          22.6315   73.4796    1.6396 C.3     1  UNL1        0.2706
     37 C          21.8164   75.2912    2.9513 C.3     1  UNL1        0.1830
     38 H          22.0521   71.3258    5.0102 H       1  UNL1        0.2105
     39 H          22.7126   70.6614    3.2699 H       1  UNL1        0.2106
     40 H          20.7519   74.3429    5.8745 H       1  UNL1        0.2106
     41 O          22.5516   77.3269    2.0474 O.co2   1  UNL1       -0.5466
     42 O          22.2329   77.2454    4.3037 O.co2   1  UNL1       -0.5466
     43 C          22.2140   76.7086    3.2062 C.2     1  UNL1        0.0799
@<TRIPOS>UNITY_ATOM_ATTR
2 1
charge -1
26 1
charge -1
41 1
charge -1
@<TRIPOS>BOND
     1     1     4    1
     2     1    24    1
     3     1     2    1
     4     1     3    2
     5    25    28    1
     6    25    24    1
     7    25    26    1
     8    25    27    2
     9     6    11    1
    10     6    12    1
    11    29    36    1
    12    29    37    1
    13     7     9    1
    14     7    13    1
    15     8    10    1
    16     8    14    1
    17     4     5    1
    18    28    36    1
    19    30    33    1
    20    30    38    1
    21    31    34    1
    22    31    39    1
    23    32    35    1
    24    32    40    1
    25    41    43   ar
    26    15    19    2
    27    42    43   ar
    28    16    22    2
    29    17    12    1
    30    17    19   ar
    31    17    20   ar
    32    18    19   ar
    33    18    22   ar
    34    18    23    1
    35     9    10    1
    36     9    11    1
    37    10    12    1
    38    11     5    1
    39    33    34    1
    40    33    35    1
    41    34    36    1
    42    35    37    1
    43    37    43    1
    44    20    21   ar
    45    21    22   ar
@<TRIPOS>MOLECULE
*****
 43 45 0 0 0
SMALL
GASTEIGER

@<TRIPOS>ATOM
      1 P          23.0180   72.0330   -3.3760 P.3     1  UNL1        0.2189
      2 O          23.7119   72.9566   -4.5092 O.co2   1  UNL1       -0.4371
      3 O          23.5844   70.6488   -3.2526 O.2     1  UNL1       -0.5170
      4 O          21.4390   72.1180   -3.7187 O.3     1  UNL1       -0.3112
      5 C          20.6242   70.9953   -3.4356 C.3     1  UNL1        0.1811
      6 O          18.7725   72.0328   -4.5636 O.3     1  UNL1       -0.3308
      7 O          17.0443   70.8559   -2.4143 O.3     1  UNL1       -0.3794
      8 O          16.6514   69.1430   -4.4994 O.3     1  UNL1       -0.3779
      9 C          18.2063   70.3103   -3.0393 C.3     1  UNL1        0.1713
     10 C          17.8767   69.8428   -4.4411 C.3     1  UNL1        0.1895
     11 C          19.1772   71.4528   -3.3046 C.3     1  UNL1        0.1764
     12 C          17.8392   71.1526   -5.2098 C.3     1  UNL1        0.2383
     13 H          16.4091   70.1445   -2.2349 H       1  UNL1        0.2105
     14 H          16.7266   68.3169   -3.9955 H       1  UNL1        0.2106
     15 O          16.0709   70.4106   -7.2832 O.2     1  UNL1       -0.2464
     16 O          19.4210   70.5691  -10.4448 O.2     1  UNL1       -0.2670
     17 N          18.2228   70.9927   -6.5839 N.ar    1  UNL1       -0.2551
     18 N          17.7414   70.4893   -8.8557 N.ar    1  UNL1       -0.2743
     19 C          17.2569   70.6170   -7.5473 C.ar    1  UNL1        0.3323
     20 C          19.5413   71.2088   -6.9656 C.ar    1  UNL1        0.0869
     21 C          19.9881   71.0833   -8.2168 C.ar    1  UNL1        0.0795
     22 C          19.0433   70.6929   -9.2837 C.ar    1  UNL1        0.2626
     23 H          17.0878   70.2265   -9.5436 H       1  UNL1        0.1734
     24 O          23.1493   72.9357   -2.0415 O.3     1  UNL1       -0.2703
     25 P          22.6550   74.4423   -1.7264 P.3     1  UNL1        0.2208
     26 O          21.3903   74.6318   -2.7188 O.co2   1  UNL1       -0.4371
     27 O          23.7234   75.4858   -1.8801 O.2     1  UNL1       -0.5170
     28 O          22.0065   74.3603   -0.2515 O.3     1  UNL1       -0.2858
     29 O          21.1800   72.1572    0.0178 O.3     1  UNL1       -0.3226
     30 O          20.2778   73.8470    3.6782 O.3     1  UNL1       -0.3794
     31 O          19.8565   75.3503    1.2090 O.3     1  UNL1       -0.3775
     32 O          22.5162   72.0087    3.4317 O.3     1  UNL1       -0.3792
     33 C          21.0340   73.6541    2.4828 C.3     1  UNL1        0.1718
     34 C          20.1579   73.9610    1.2680 C.3     1  UNL1        0.1968
     35 C          21.5004   72.1970    2.4483 C.3     1  UNL1        0.1723
     36 C          20.8559   73.5473   -0.0283 C.3     1  UNL1        0.2706
     37 C          22.0698   71.8266    1.0818 C.3     1  UNL1        0.1830
     38 H          19.9706   74.7663    3.7220 H       1  UNL1        0.2105
     39 H          19.4137   75.6198    2.0286 H       1  UNL1        0.2106
     40 H          22.1668   72.2411    4.3062 H       1  UNL1        0.2106
     41 O          23.3112   69.9101    1.6178 O.co2   1  UNL1       -0.5466
     42 O          21.4507   69.6184    0.3323 O.co2   1  UNL1       -0.5466
     43 C          22.2136   70.3453    0.9509 C.2     1  UNL1        0.0799
@<TRIPOS>UNITY_ATOM_ATTR
2 1
charge -1
26 1
charge -1
41 1
charge -1
@<TRIPOS>BOND
     1     1     4    1
     2     1    24    1
     3     1     2    1
     4     1     3    2
     5    25    28    1
     6    25    24    1
     7    25    26    1
     8    25    27    2
     9     6    11    1
    10     6    12    1
    11    29    36    1
    12    29    37    1
    13     7     9    1
    14     7    13    1
    15     8    10    1
    16     8    14    1
    17     4     5    1
    18    28    36    1
    19    30    33    1
    20    30    38    1
    21    31    34    1
    22    31    39    1
    23    32    35    1
    24    32    40    1
    25    41    43   ar
    26    15    19    2
    27    42    43   ar
    28    16    22    2
    29    17    12    1
    30    17    19   ar
    31    17    20   ar
    32    18    19   ar
    33    18    22   ar
    34    18    23    1
    35     9    10    1
    36     9    11    1
    37    10    12    1
    38    11     5    1
    39    33    34    1
    40    33    35    1
    41    34    36    1
    42    35    37    1
    43    37    43    1
    44    20    21   ar
    45    21    22   ar
@<TRIPOS>MOLECULE
*****
 43 45 0 0 0
SMALL
GASTEIGER

@<TRIPOS>ATOM
      1 P          22.4638   73.1198   -4.5413 P.3     1  UNL1        0.2189
      2 O          22.6738   73.8575   -5.9662 O.co2   1  UNL1       -0.4371
      3 O          23.7092   72.5379   -3.9395 O.2     1  UNL1       -0.5170
      4 O          21.2622   72.0725   -4.8193 O.3     1  UNL1       -0.3112
      5 C          20.7231   71.3557   -3.7238 C.3     1  UNL1        0.1811
      6 O          18.7646   72.1891   -4.8407 O.3     1  UNL1       -0.3308
      7 O          17.2011   71.0527   -2.5482 O.3     1  UNL1       -0.3794
      8 O          16.8495   69.1778   -4.4968 O.3     1  UNL1       -0.3779
      9 C          18.3738   70.5427   -3.1832 C.3     1  UNL1        0.1713
     10 C          18.0255   69.9587   -4.5360 C.3     1  UNL1        0.1895
     11 C          19.2541   71.7253   -3.5637 C.3     1  UNL1        0.1764
     12 C          17.8704   71.2070   -5.3878 C.3     1  UNL1        0.2383
     13 H          16.6230   70.3153   -2.2959 H       1  UNL1        0.2105
     14 H          16.9993   68.3952   -3.9426 H       1  UNL1        0.2106
     15 O          16.0421   70.3622   -7.3677 O.2     1  UNL1       -0.2464
     16 O          19.2964   70.3604  -10.6316 O.2     1  UNL1       -0.2670
     17 N          18.2131   70.9781   -6.7629 N.ar    1  UNL1       -0.2551
     18 N          17.6649   70.3611   -8.9912 N.ar    1  UNL1       -0.2743
     19 C          17.2194   70.5547   -7.6770 C.ar    1  UNL1        0.3323
     20 C          19.5195   71.1743   -7.1941 C.ar    1  UNL1        0.0869
     21 C          19.9290   70.9858   -8.4501 C.ar    1  UNL1        0.0795
     22 C          18.9532   70.5426   -9.4674 C.ar    1  UNL1        0.2626
     23 H          16.9915   70.0643   -9.6452 H       1  UNL1        0.1734
     24 O          21.7516   74.2601   -3.6438 O.3     1  UNL1       -0.2703
     25 P          22.0274   74.7418   -2.1254 P.3     1  UNL1        0.2208
     26 O          20.6889   75.5720   -1.7519 O.co2   1  UNL1       -0.4371
     27 O          23.3033   75.5125   -1.9459 O.2     1  UNL1       -0.5170
     28 O          21.9298   73.3941   -1.2442 O.3     1  UNL1       -0.2858
     29 O          23.3040   73.5467    0.6787 O.3     1  UNL1       -0.3226
     30 O          21.9091   69.6673    0.9480 O.3     1  UNL1       -0.3794
     31 O          22.7489   70.7636   -1.6263 O.3     1  UNL1       -0.3775
     32 O          20.8155   71.7343    2.6749 O.3     1  UNL1       -0.3792
     33 C          21.8502   71.0527    0.6086 C.3     1  UNL1        0.1718
     34 C          22.9771   71.3885   -0.3685 C.3     1  UNL1        0.1968
     35 C          22.0048   71.8624    1.8979 C.3     1  UNL1        0.1723
     36 C          23.0890   72.8996   -0.5761 C.3     1  UNL1        0.2706
     37 C          22.2374   73.3413    1.6025 C.3     1  UNL1        0.1830
     38 H          21.8132   69.1329    0.1439 H       1  UNL1        0.2105
     39 H          22.6766   69.8046   -1.5021 H       1  UNL1        0.2106
     40 H          20.6559   70.7976    2.8697 H       1  UNL1        0.2106
     41 O          22.7355   73.2211    3.8914 O.co2   1  UNL1       -0.5466
     42 O          23.0326   75.2363    2.8666 O.co2   1  UNL1       -0.5466
     43 C          22.7098   74.0586    2.8251 C.2     1  UNL1        0.0799
@<TRIPOS>UNITY_ATOM_ATTR
2 1
charge -1
26 1
charge -1
41 1
charge -1
@<TRIPOS>BOND
     1     1     4    1
     2     1    24    1
     3     1     2    1
     4     1     3    2
     5    25    28    1
     6    25    24    1
     7    25    26    1
     8    25    27    2
     9     6    11    1
    10     6    12    1
    11    29    36    1
    12    29    37    1
    13     7     9    1
    14     7    13    1
    15     8    10    1
    16     8    14    1
    17     4     5    1
    18    28    36    1
    19    30    33    1
    20    30    38    1
    21    31    34    1
    22    31    39    1
    23    32    35    1
    24    32    40    1
    25    41    43   ar
    26    15    19    2
    27    42    43   ar
    28    16    22    2
    29    17    12    1
    30    17    19   ar
    31    17    20   ar
    32    18    19   ar
    33    18    22   ar
    34    18    23    1
    35     9    10    1
    36     9    11    1
    37    10    12    1
    38    11     5    1
    39    33    34    1
    40    33    35    1
    41    34    36    1
    42    35    37    1
    43    37    43    1
    44    20    21   ar
    45    21    22   ar
@<TRIPOS>MOLECULE
*****
 43 45 0 0 0
SMALL
GASTEIGER

@<TRIPOS>ATOM
      1 P          22.8652   72.2536   -3.6994 P.3     1  UNL1        0.2189
      2 O          23.6488   73.5008   -3.0292 O.co2   1  UNL1       -0.4371
      3 O          23.4586   70.9052   -3.4138 O.2     1  UNL1       -0.5170
      4 O          22.7576   72.6570   -5.2626 O.3     1  UNL1       -0.3112
      5 C          21.8996   73.7221   -5.6285 C.3     1  UNL1        0.1811
      6 O          21.3346   72.7932   -7.7722 O.3     1  UNL1       -0.3308
      7 O          21.7721   75.5478   -8.8734 O.3     1  UNL1       -0.3794
      8 O          19.0547   75.3997   -8.7007 O.3     1  UNL1       -0.3779
      9 C          21.2179   75.1540   -7.6179 C.3     1  UNL1        0.1713
     10 C          19.8172   74.6124   -7.8100 C.3     1  UNL1        0.1895
     11 C          21.9726   73.9222   -7.1368 C.3     1  UNL1        0.1764
     12 C          20.0893   73.2181   -8.3483 C.3     1  UNL1        0.2383
     13 H          21.3059   76.3332   -9.2009 H       1  UNL1        0.2105
     14 H          18.9084   76.2771   -8.3125 H       1  UNL1        0.2106
     15 O          19.0988   71.1989  -10.0567 O.2     1  UNL1       -0.2464
     16 O          16.1532   69.6796   -6.8537 O.2     1  UNL1       -0.2670
     17 N          19.0636   72.2811   -7.9864 N.ar    1  UNL1       -0.2551
     18 N          17.6319   70.4448   -8.4601 N.ar    1  UNL1       -0.2743
     19 C          18.6375   71.3058   -8.9188 C.ar    1  UNL1        0.3323
     20 C          18.4925   72.3326   -6.7206 C.ar    1  UNL1        0.0869
     21 C          17.5349   71.5050   -6.2978 C.ar    1  UNL1        0.0795
     22 C          17.0327   70.4574   -7.2110 C.ar    1  UNL1        0.2626
     23 H          17.3175   69.7586   -9.0923 H       1  UNL1        0.1734
     24 O          21.3509   72.4490   -3.1687 O.3     1  UNL1       -0.2703
     25 P          20.3764   71.4525   -2.3495 P.3     1  UNL1        0.2208
     26 O          20.9470   69.9851   -2.7258 O.co2   1  UNL1       -0.4371
     27 O          18.9160   71.6416   -2.6414 O.2     1  UNL1       -0.5170
     28 O          20.7827   71.6629   -0.8025 O.3     1  UNL1       -0.2858
     29 O          21.8514   73.4171    0.3764 O.3     1  UNL1       -0.3226
     30 O          23.4171   70.0775    2.2375 O.3     1  UNL1       -0.3794
     31 O          23.1109   70.1473   -0.6670 O.3     1  UNL1       -0.3775
     32 O          21.3645   71.6564    3.5584 O.3     1  UNL1       -0.3792
     33 C          22.4254   70.8436    1.5537 C.3     1  UNL1        0.1718
     34 C          22.9627   71.2745    0.1887 C.3     1  UNL1        0.1968
     35 C          22.1019   72.0702    2.4097 C.3     1  UNL1        0.1723
     36 C          22.0245   72.2836   -0.4748 C.3     1  UNL1        0.2706
     37 C          21.2679   73.0862    1.6347 C.3     1  UNL1        0.1830
     38 H          23.6387   69.2926    1.7121 H       1  UNL1        0.2105
     39 H          23.7048   69.5028   -0.2520 H       1  UNL1        0.2106
     40 H          21.8842   71.0093    4.0605 H       1  UNL1        0.2106
     41 O          22.4249   75.0411    2.2190 O.co2   1  UNL1       -0.5466
     42 O          20.2767   74.8437    2.9575 O.co2   1  UNL1       -0.5466
     43 C          21.2368   74.3998    2.3458 C.2     1  UNL1        0.0799
@<TRIPOS>UNITY_ATOM_ATTR
2 1
charge -1
26 1
charge -1
41 1
charge -1
@<TRIPOS>BOND
     1     1     4    1
     2     1    24    1
     3     1     2    1
     4     1     3    2
     5    25    28    1
     6    25    24    1
     7    25    26    1
     8    25    27    2
     9     6    11    1
    10     6    12    1
    11    29    36    1
    12    29    37    1
    13     7     9    1
    14     7    13    1
    15     8    10    1
    16     8    14    1
    17     4     5    1
    18    28    36    1
    19    30    33    1
    20    30    38    1
    21    31    34    1
    22    31    39    1
    23    32    35    1
    24    32    40    1
    25    41    43   ar
    26    15    19    2
    27    42    43   ar
    28    16    22    2
    29    17    12    1
    30    17    19   ar
    31    17    20   ar
    32    18    19   ar
    33    18    22   ar
    34    18    23    1
    35     9    10    1
    36     9    11    1
    37    10    12    1
    38    11     5    1
    39    33    34    1
    40    33    35    1
    41    34    36    1
    42    35    37    1
    43    37    43    1
    44    20    21   ar
    45    21    22   ar
@<TRIPOS>MOLECULE
*****
 43 45 0 0 0
SMALL
GASTEIGER

@<TRIPOS>ATOM
      1 P          22.4839   74.8700   -7.8989 P.3     1  UNL1        0.2189
      2 O          22.7467   74.2785   -6.4156 O.co2   1  UNL1       -0.4371
      3 O          21.7183   76.1599   -7.9401 O.2     1  UNL1       -0.5170
      4 O          21.8174   73.6314   -8.6986 O.3     1  UNL1       -0.3112
      5 C          21.2271   72.5835   -7.9516 C.3     1  UNL1        0.1811
      6 O          19.8707   70.6095   -8.1545 O.3     1  UNL1       -0.3308
      7 O          18.4554   72.0364  -10.3799 O.3     1  UNL1       -0.3794
      8 O          16.7353   72.3434   -8.2863 O.3     1  UNL1       -0.3779
      9 C          18.9915   72.5627   -9.1658 C.3     1  UNL1        0.1713
     10 C          18.1082   72.1850   -7.9956 C.3     1  UNL1        0.1895
     11 C          20.2756   71.8069   -8.8527 C.3     1  UNL1        0.1764
     12 C          18.4936   70.7337   -7.7652 C.3     1  UNL1        0.2383
     13 H          17.6342   72.5039  -10.6006 H       1  UNL1        0.2105
     14 H          16.5405   73.2841   -8.4245 H       1  UNL1        0.2106
     15 O          16.1695   69.5743   -6.6555 O.2     1  UNL1       -0.2464
     16 O          18.0932   69.2741   -2.4778 O.2     1  UNL1       -0.2670
     17 N          18.3599   70.3429   -6.3903 N.ar    1  UNL1       -0.2551
     18 N          17.1295   69.4268   -4.5756 N.ar    1  UNL1       -0.2743
     19 C          17.1495   69.7694   -5.9340 C.ar    1  UNL1        0.3323
     20 C          19.4198   70.5269   -5.5108 C.ar    1  UNL1        0.0869
     21 C          19.3858   70.1954   -4.2186 C.ar    1  UNL1        0.0795
     22 C          18.1578   69.5912   -3.6616 C.ar    1  UNL1        0.2626
     23 H          16.2967   69.0278   -4.2342 H       1  UNL1        0.1734
     24 O          23.9714   74.9495   -8.5265 O.3     1  UNL1       -0.2703
     25 P          24.4732   75.0213  -10.0617 P.3     1  UNL1        0.2208
     26 O          24.0607   76.5192  -10.5160 O.co2   1  UNL1       -0.4371
     27 O          23.9238   73.9351  -10.9406 O.2     1  UNL1       -0.5170
     28 O          26.0832   75.0539   -9.9649 O.3     1  UNL1       -0.2858
     29 O          27.5003   75.3892   -8.0972 O.3     1  UNL1       -0.3226
     30 O          29.7018   77.1072  -11.1419 O.3     1  UNL1       -0.3794
     31 O          26.8174   77.5396  -10.9739 O.3     1  UNL1       -0.3775
     32 O          30.4456   74.4988  -10.0959 O.3     1  UNL1       -0.3792
     33 C          28.7845   76.1814  -10.5592 C.3     1  UNL1        0.1718
     34 C          27.6061   76.9424   -9.9512 C.3     1  UNL1        0.1968
     35 C          29.5280   75.3975   -9.4754 C.3     1  UNL1        0.1723
     36 C          26.7224   76.0101   -9.1213 C.3     1  UNL1        0.2706
     37 C          28.5638   74.5903   -8.6110 C.3     1  UNL1        0.1830
     38 H          29.2514   77.6169  -11.8337 H       1  UNL1        0.2105
     39 H          27.3719   78.1323  -11.5047 H       1  UNL1        0.2106
     40 H          31.0649   75.0000  -10.6492 H       1  UNL1        0.2106
     41 O          30.1056   73.0958   -7.6674 O.co2   1  UNL1       -0.5466
     42 O          29.0558   74.5403   -6.2495 O.co2   1  UNL1       -0.5466
     43 C          29.2434   74.1004   -7.3739 C.2     1  UNL1        0.0799
@<TRIPOS>UNITY_ATOM_ATTR
2 1
charge -1
26 1
charge -1
41 1
charge -1
@<TRIPOS>BOND
     1     1     4    1
     2     1    24    1
     3     1     2    1
     4     1     3    2
     5    25    28    1
     6    25    24    1
     7    25    26    1
     8    25    27    2
     9     6    11    1
    10     6    12    1
    11    29    36    1
    12    29    37    1
    13     7     9    1
    14     7    13    1
    15     8    10    1
    16     8    14    1
    17     4     5    1
    18    28    36    1
    19    30    33    1
    20    30    38    1
    21    31    34    1
    22    31    39    1
    23    32    35    1
    24    32    40    1
    25    41    43   ar
    26    15    19    2
    27    42    43   ar
    28    16    22    2
    29    17    12    1
    30    17    19   ar
    31    17    20   ar
    32    18    19   ar
    33    18    22   ar
    34    18    23    1
    35     9    10    1
    36     9    11    1
    37    10    12    1
    38    11     5    1
    39    33    34    1
    40    33    35    1
    41    34    36    1
    42    35    37    1
    43    37    43    1
    44    20    21   ar
    45    21    22   ar
@<TRIPOS>MOLECULE
*****
 43 45 0 0 0
SMALL
GASTEIGER

@<TRIPOS>ATOM
      1 P          22.5989   73.0459   -3.2872 P.3     1  UNL1        0.2189
      2 O          23.8961   72.5658   -4.1272 O.co2   1  UNL1       -0.4371
      3 O          22.6319   72.7115   -1.8247 O.2     1  UNL1       -0.5170
      4 O          21.3509   72.4385   -4.1188 O.3     1  UNL1       -0.3112
      5 C          20.6499   71.3347   -3.5761 C.3     1  UNL1        0.1811
      6 O          18.7094   72.1845   -4.7120 O.3     1  UNL1       -0.3308
      7 O          17.1097   71.0167   -2.4606 O.3     1  UNL1       -0.3794
      8 O          16.7884   69.1695   -4.4407 O.3     1  UNL1       -0.3779
      9 C          18.2921   70.5152   -3.0841 C.3     1  UNL1        0.1713
     10 C          17.9651   69.9504   -4.4503 C.3     1  UNL1        0.1895
     11 C          19.1785   71.7026   -3.4341 C.3     1  UNL1        0.1764
     12 C          17.8238   71.2106   -5.2869 C.3     1  UNL1        0.2383
     13 H          16.5275   70.2761   -2.2278 H       1  UNL1        0.2105
     14 H          16.9294   68.3792   -3.8952 H       1  UNL1        0.2106
     15 O          16.0280   70.3889   -7.3059 O.2     1  UNL1       -0.2464
     16 O          19.3323   70.4373  -10.5189 O.2     1  UNL1       -0.2670
     17 N          18.1881   71.0008   -6.6595 N.ar    1  UNL1       -0.2551
     18 N          17.6756   70.4128   -8.9040 N.ar    1  UNL1       -0.2743
     19 C          17.2096   70.5878   -7.5943 C.ar    1  UNL1        0.3323
     20 C          19.5005   71.2054   -7.0678 C.ar    1  UNL1        0.0869
     21 C          19.9297   71.0346   -8.3197 C.ar    1  UNL1        0.0795
     22 C          18.9708   70.6032   -9.3578 C.ar    1  UNL1        0.2626
     23 H          17.0130   70.1235   -9.5723 H       1  UNL1        0.1734
     24 O          22.5190   74.6267   -3.6148 O.3     1  UNL1       -0.2703
     25 P          23.5699   75.6134   -4.3469 P.3     1  UNL1        0.2208
     26 O          25.0046   74.9497   -3.9986 O.co2   1  UNL1       -0.4371
     27 O          23.4421   77.0549   -3.9474 O.2     1  UNL1       -0.5170
     28 O          23.3639   75.3344   -5.9224 O.3     1  UNL1       -0.2858
     29 O          21.4674   76.2174   -7.0328 O.3     1  UNL1       -0.3226
     30 O          22.7274   73.3205   -9.6952 O.3     1  UNL1       -0.3794
     31 O          22.7103   72.7855   -6.8232 O.3     1  UNL1       -0.3775
     32 O          23.2336   76.1293  -10.2476 O.3     1  UNL1       -0.3792
     33 C          22.8821   74.3238   -8.6915 C.3     1  UNL1        0.1718
     34 C          22.1064   73.9177   -7.4381 C.3     1  UNL1        0.1968
     35 C          22.3381   75.6402   -9.2509 C.3     1  UNL1        0.1723
     36 C          22.0578   75.0657   -6.4289 C.3     1  UNL1        0.2706
     37 C          22.2015   76.6959   -8.1576 C.3     1  UNL1        0.1830
     38 H          23.0664   72.4746   -9.3621 H       1  UNL1        0.2105
     39 H          22.7447   72.0532   -7.4581 H       1  UNL1        0.2106
     40 H          23.3295   75.4666  -10.9493 H       1  UNL1        0.2106
     41 O          20.1287   77.4346   -8.9699 O.co2   1  UNL1       -0.5466
     42 O          21.7617   79.0040   -8.7062 O.co2   1  UNL1       -0.5466
     43 C          21.3756   77.8471   -8.6320 C.2     1  UNL1        0.0799
@<TRIPOS>UNITY_ATOM_ATTR
2 1
charge -1
26 1
charge -1
41 1
charge -1
@<TRIPOS>BOND
     1     1     4    1
     2     1    24    1
     3     1     2    1
     4     1     3    2
     5    25    28    1
     6    25    24    1
     7    25    26    1
     8    25    27    2
     9     6    11    1
    10     6    12    1
    11    29    36    1
    12    29    37    1
    13     7     9    1
    14     7    13    1
    15     8    10    1
    16     8    14    1
    17     4     5    1
    18    28    36    1
    19    30    33    1
    20    30    38    1
    21    31    34    1
    22    31    39    1
    23    32    35    1
    24    32    40    1
    25    41    43   ar
    26    15    19    2
    27    42    43   ar
    28    16    22    2
    29    17    12    1
    30    17    19   ar
    31    17    20   ar
    32    18    19   ar
    33    18    22   ar
    34    18    23    1
    35     9    10    1
    36     9    11    1
    37    10    12    1
    38    11     5    1
    39    33    34    1
    40    33    35    1
    41    34    36    1
    42    35    37    1
    43    37    43    1
    44    20    21   ar
    45    21    22   ar
@<TRIPOS>MOLECULE
*****
 43 45 0 0 0
SMALL
GASTEIGER

@<TRIPOS>ATOM
      1 P          19.8638   69.9495   -2.7196 P.3     1  UNL1        0.2189
      2 O          21.3346   69.6559   -3.3274 O.co2   1  UNL1       -0.4371
      3 O          19.0105   68.7331   -2.5100 O.2     1  UNL1       -0.5170
      4 O          19.2524   71.0748   -3.7084 O.3     1  UNL1       -0.3112
      5 C          20.0010   72.2551   -3.9345 C.3     1  UNL1        0.1811
      6 O          19.1589   73.6920   -5.6676 O.3     1  UNL1       -0.3308
      7 O          16.8594   74.2543   -3.8270 O.3     1  UNL1       -0.3794
      8 O          15.8003   72.4414   -5.5671 O.3     1  UNL1       -0.3779
      9 C          17.5824   73.0391   -4.0246 C.3     1  UNL1        0.1713
     10 C          17.1946   72.4072   -5.3447 C.3     1  UNL1        0.1895
     11 C          19.0442   73.3950   -4.2591 C.3     1  UNL1        0.1764
     12 C          17.9664   73.2568   -6.3399 C.3     1  UNL1        0.2383
     13 H          15.9225   74.0524   -3.6752 H       1  UNL1        0.2105
     14 H          15.3542   71.8853   -4.9085 H       1  UNL1        0.2106
     15 O          17.9582   74.3254   -8.9542 O.2     1  UNL1       -0.2464
     16 O          19.4018   70.3477  -10.7811 O.2     1  UNL1       -0.2670
     17 N          18.3356   72.5225   -7.5169 N.ar    1  UNL1       -0.2551
     18 N          18.6762   72.3429   -9.8617 N.ar    1  UNL1       -0.2743
     19 C          18.2968   73.1528   -8.7831 C.ar    1  UNL1        0.3323
     20 C          18.7318   71.1949   -7.4103 C.ar    1  UNL1        0.0869
     21 C          19.0907   70.4358   -8.4475 C.ar    1  UNL1        0.0795
     22 C          19.0771   71.0179   -9.8056 C.ar    1  UNL1        0.2626
     23 H          18.6552   72.7592  -10.7537 H       1  UNL1        0.1734
     24 O          20.1873   70.7850   -1.3742 O.3     1  UNL1       -0.2703
     25 P          21.4576   70.7381   -0.3752 P.3     1  UNL1        0.2208
     26 O          22.6301   71.4506   -1.2342 O.co2   1  UNL1       -0.4371
     27 O          21.8017   69.3630    0.1192 O.2     1  UNL1       -0.5170
     28 O          21.1031   71.7985    0.7877 O.3     1  UNL1       -0.2858
     29 O          21.6411   74.0529    1.2749 O.3     1  UNL1       -0.3226
     30 O          22.0031   72.2807    4.9892 O.3     1  UNL1       -0.3794
     31 O          23.0280   70.9420    2.6035 O.3     1  UNL1       -0.3775
     32 O          19.6793   73.9148    4.3724 O.3     1  UNL1       -0.3792
     33 C          21.4696   72.4599    3.6773 C.3     1  UNL1        0.1718
     34 C          22.5843   72.2933    2.6443 C.3     1  UNL1        0.1968
     35 C          20.8754   73.8679    3.5967 C.3     1  UNL1        0.1723
     36 C          22.1047   72.7023    1.2509 C.3     1  UNL1        0.2706
     37 C          20.5389   74.2490    2.1579 C.3     1  UNL1        0.1830
     38 H          22.3864   71.3926    5.0640 H       1  UNL1        0.2105
     39 H          23.3336   70.6757    3.4844 H       1  UNL1        0.2106
     40 H          19.8797   73.6741    5.2904 H       1  UNL1        0.2106
     41 O          21.3164   76.3438    1.4444 O.co2   1  UNL1       -0.5466
     42 O          19.2641   76.2786    2.4359 O.co2   1  UNL1       -0.5466
     43 C          20.2757   75.7154    2.0453 C.2     1  UNL1        0.0799
@<TRIPOS>UNITY_ATOM_ATTR
2 1
charge -1
26 1
charge -1
41 1
charge -1
@<TRIPOS>BOND
     1     1     4    1
     2     1    24    1
     3     1     2    1
     4     1     3    2
     5    25    28    1
     6    25    24    1
     7    25    26    1
     8    25    27    2
     9     6    11    1
    10     6    12    1
    11    29    36    1
    12    29    37    1
    13     7     9    1
    14     7    13    1
    15     8    10    1
    16     8    14    1
    17     4     5    1
    18    28    36    1
    19    30    33    1
    20    30    38    1
    21    31    34    1
    22    31    39    1
    23    32    35    1
    24    32    40    1
    25    41    43   ar
    26    15    19    2
    27    42    43   ar
    28    16    22    2
    29    17    12    1
    30    17    19   ar
    31    17    20   ar
    32    18    19   ar
    33    18    22   ar
    34    18    23    1
    35     9    10    1
    36     9    11    1
    37    10    12    1
    38    11     5    1
    39    33    34    1
    40    33    35    1
    41    34    36    1
    42    35    37    1
    43    37    43    1
    44    20    21   ar
    45    21    22   ar
@<TRIPOS>MOLECULE
*****
 43 45 0 0 0
SMALL
GASTEIGER

@<TRIPOS>ATOM
      1 P          22.2667   73.3863   -5.3273 P.3     1  UNL1        0.2189
      2 O          22.4630   74.9144   -5.8225 O.co2   1  UNL1       -0.4371
      3 O          23.4976   72.7405   -4.7618 O.2     1  UNL1       -0.5170
      4 O          21.6087   72.6449   -6.6061 O.3     1  UNL1       -0.3112
      5 C          20.8211   73.4100   -7.4998 C.3     1  UNL1        0.1811
      6 O          19.9974   71.1854   -7.8875 O.3     1  UNL1       -0.3308
      7 O          18.5002   72.3452  -10.2124 O.3     1  UNL1       -0.3794
      8 O          16.5669   72.1422   -8.3000 O.3     1  UNL1       -0.3779
      9 C          18.7791   72.9244   -8.9375 C.3     1  UNL1        0.1713
     10 C          17.9044   72.2958   -7.8736 C.3     1  UNL1        0.1895
     11 C          20.1705   72.4759   -8.5120 C.3     1  UNL1        0.1764
     12 C          18.5998   70.9656   -7.6391 C.3     1  UNL1        0.2383
     13 H          17.6161   72.6176  -10.5052 H       1  UNL1        0.2105
     14 H          16.1682   73.0168   -8.4352 H       1  UNL1        0.2106
     15 O          16.2482   69.7478   -6.6575 O.2     1  UNL1       -0.2464
     16 O          18.0748   69.1790   -2.4641 O.2     1  UNL1       -0.2670
     17 N          18.4337   70.4899   -6.2948 N.ar    1  UNL1       -0.2551
     18 N          17.1598   69.4666   -4.5696 N.ar    1  UNL1       -0.2743
     19 C          17.2118   69.8935   -5.9031 C.ar    1  UNL1        0.3323
     20 C          19.4736   70.6144   -5.3816 C.ar    1  UNL1        0.0869
     21 C          19.4092   70.2026   -4.1139 C.ar    1  UNL1        0.0795
     22 C          18.1672   69.5694   -3.6240 C.ar    1  UNL1        0.2626
     23 H          16.3185   69.0501   -4.2730 H       1  UNL1        0.1734
     24 O          21.0286   73.4959   -4.2939 O.3     1  UNL1       -0.2703
     25 P          20.9343   74.1423   -2.8151 P.3     1  UNL1        0.2208
     26 O          19.3634   74.5048   -2.6694 O.co2   1  UNL1       -0.4371
     27 O          21.8601   75.3026   -2.5901 O.2     1  UNL1       -0.5170
     28 O          21.1607   72.9007   -1.8104 O.3     1  UNL1       -0.2858
     29 O          22.8855   73.3928   -0.2638 O.3     1  UNL1       -0.3226
     30 O          21.9725   69.4832    0.7110 O.3     1  UNL1       -0.3794
     31 O          22.1397   70.3118   -2.0855 O.3     1  UNL1       -0.3775
     32 O          21.0649   71.6607    2.4097 O.3     1  UNL1       -0.3792
     33 C          21.7058   70.8076    0.2495 C.3     1  UNL1        0.1718
     34 C          22.5633   71.1031   -0.9813 C.3     1  UNL1        0.1968
     35 C          22.0458   71.7801    1.3811 C.3     1  UNL1        0.1723
     36 C          22.4777   72.5809   -1.3657 C.3     1  UNL1        0.2706
     37 C          22.0625   73.2242    0.8883 C.3     1  UNL1        0.1830
     38 H          21.7638   68.8476    0.0083 H       1  UNL1        0.2105
     39 H          22.1911   69.3729   -1.8485 H       1  UNL1        0.2106
     40 H          21.0440   70.7461    2.7320 H       1  UNL1        0.2106
     41 O          21.8587   74.3749    2.9220 O.co2   1  UNL1       -0.5466
     42 O          23.8418   74.5661    1.8130 O.co2   1  UNL1       -0.5466
     43 C          22.7069   74.1208    1.8949 C.2     1  UNL1        0.0799
@<TRIPOS>UNITY_ATOM_ATTR
2 1
charge -1
26 1
charge -1
41 1
charge -1
@<TRIPOS>BOND
     1     1     4    1
     2     1    24    1
     3     1     2    1
     4     1     3    2
     5    25    28    1
     6    25    24    1
     7    25    26    1
     8    25    27    2
     9     6    11    1
    10     6    12    1
    11    29    36    1
    12    29    37    1
    13     7     9    1
    14     7    13    1
    15     8    10    1
    16     8    14    1
    17     4     5    1
    18    28    36    1
    19    30    33    1
    20    30    38    1
    21    31    34    1
    22    31    39    1
    23    32    35    1
    24    32    40    1
    25    41    43   ar
    26    15    19    2
    27    42    43   ar
    28    16    22    2
    29    17    12    1
    30    17    19   ar
    31    17    20   ar
    32    18    19   ar
    33    18    22   ar
    34    18    23    1
    35     9    10    1
    36     9    11    1
    37    10    12    1
    38    11     5    1
    39    33    34    1
    40    33    35    1
    41    34    36    1
    42    35    37    1
    43    37    43    1
    44    20    21   ar
    45    21    22   ar
@<TRIPOS>MOLECULE
*****
 43 45 0 0 0
SMALL
GASTEIGER

@<TRIPOS>ATOM
      1 P          20.0707   70.1606   -2.2769 P.3     1  UNL1        0.2189
      2 O          21.4046   69.5723   -2.9793 O.co2   1  UNL1       -0.4371
      3 O          18.9233   69.1974   -2.1896 O.2     1  UNL1       -0.5170
      4 O          19.7778   71.5309   -3.0858 O.3     1  UNL1       -0.3112
      5 C          20.8002   72.0620   -3.9087 C.3     1  UNL1        0.1811
      6 O          20.6270   73.6439   -5.7102 O.3     1  UNL1       -0.3308
      7 O          18.8812   75.2550   -3.8806 O.3     1  UNL1       -0.3794
      8 O          17.0682   74.0282   -5.5066 O.3     1  UNL1       -0.3779
      9 C          18.9811   73.8374   -4.0178 C.3     1  UNL1        0.1713
     10 C          18.3084   73.3859   -5.2968 C.3     1  UNL1        0.1895
     11 C          20.4398   73.4931   -4.2863 C.3     1  UNL1        0.1764
     12 C          19.3435   73.7562   -6.3453 C.3     1  UNL1        0.2383
     13 H          17.9579   75.4992   -3.7084 H       1  UNL1        0.2105
     14 H          16.4438   73.7597   -4.8138 H       1  UNL1        0.2106
     15 O          20.2556   74.4579   -8.9245 O.2     1  UNL1       -0.2464
     16 O          19.1570   70.3222  -10.6372 O.2     1  UNL1       -0.2670
     17 N          19.3076   72.8820   -7.4835 N.ar    1  UNL1       -0.2551
     18 N          19.7066   72.3977   -9.7753 N.ar    1  UNL1       -0.2743
     19 C          19.7906   73.3324   -8.7349 C.ar    1  UNL1        0.3323
     20 C          18.8002   71.5949   -7.3537 C.ar    1  UNL1        0.0869
     21 C          18.7267   70.7154   -8.3546 C.ar    1  UNL1        0.0795
     22 C          19.2096   71.1070   -9.6951 C.ar    1  UNL1        0.2626
     23 H          20.0350   72.6891  -10.6566 H       1  UNL1        0.1734
     24 O          20.6153   70.6902   -0.8501 O.3     1  UNL1       -0.2703
     25 P          22.0449   70.4949   -0.1208 P.3     1  UNL1        0.2208
     26 O          23.1076   70.7676   -1.3110 O.co2   1  UNL1       -0.4371
     27 O          22.2106   69.1694    0.5645 O.2     1  UNL1       -0.5170
     28 O          22.1861   71.7739    0.8521 O.3     1  UNL1       -0.2858
     29 O          20.6473   73.4520    1.5045 O.3     1  UNL1       -0.3226
     30 O          24.1788   75.5856    1.2939 O.3     1  UNL1       -0.3794
     31 O          23.5163   73.6125   -0.7561 O.3     1  UNL1       -0.3775
     32 O          23.0759   74.8409    3.8784 O.3     1  UNL1       -0.3792
     33 C          23.3617   74.4372    1.5204 C.3     1  UNL1        0.1718
     34 C          22.6112   74.0818    0.2366 C.3     1  UNL1        0.1968
     35 C          22.3730   74.7734    2.6391 C.3     1  UNL1        0.1723
     36 C          21.5576   73.0048    0.4990 C.3     1  UNL1        0.2706
     37 C          21.2811   73.7137    2.7546 C.3     1  UNL1        0.1830
     38 H          24.8151   75.3956    0.5866 H       1  UNL1        0.2105
     39 H          24.1878   74.2908   -0.9274 H       1  UNL1        0.2106
     40 H          23.7739   75.5117    3.8181 H       1  UNL1        0.2106
     41 O          20.2490   75.5417    3.8008 O.co2   1  UNL1       -0.5466
     42 O          19.2662   73.5013    4.0648 O.co2   1  UNL1       -0.5466
     43 C          20.1549   74.2031    3.6058 C.2     1  UNL1        0.0799
@<TRIPOS>UNITY_ATOM_ATTR
2 1
charge -1
26 1
charge -1
41 1
charge -1
@<TRIPOS>BOND
     1     1     4    1
     2     1    24    1
     3     1     2    1
     4     1     3    2
     5    25    28    1
     6    25    24    1
     7    25    26    1
     8    25    27    2
     9     6    11    1
    10     6    12    1
    11    29    36    1
    12    29    37    1
    13     7     9    1
    14     7    13    1
    15     8    10    1
    16     8    14    1
    17     4     5    1
    18    28    36    1
    19    30    33    1
    20    30    38    1
    21    31    34    1
    22    31    39    1
    23    32    35    1
    24    32    40    1
    25    41    43   ar
    26    15    19    2
    27    42    43   ar
    28    16    22    2
    29    17    12    1
    30    17    19   ar
    31    17    20   ar
    32    18    19   ar
    33    18    22   ar
    34    18    23    1
    35     9    10    1
    36     9    11    1
    37    10    12    1
    38    11     5    1
    39    33    34    1
    40    33    35    1
    41    34    36    1
    42    35    37    1
    43    37    43    1
    44    20    21   ar
    45    21    22   ar
@<TRIPOS>MOLECULE
*****
 43 45 0 0 0
SMALL
GASTEIGER

@<TRIPOS>ATOM
      1 P          22.3503   75.3453   -7.2521 P.3     1  UNL1        0.2189
      2 O          22.4436   76.9408   -6.9981 O.co2   1  UNL1       -0.4371
      3 O          23.5452   74.7406   -7.9290 O.2     1  UNL1       -0.5170
      4 O          20.9379   75.1558   -8.0184 O.3     1  UNL1       -0.3112
      5 C          19.9914   74.2521   -7.4780 C.3     1  UNL1        0.1811
      6 O          19.6268   71.9484   -8.0592 O.3     1  UNL1       -0.3308
      7 O          17.9239   72.9773  -10.3026 O.3     1  UNL1       -0.3794
      8 O          16.0736   72.2352   -8.4420 O.3     1  UNL1       -0.3779
      9 C          18.0843   73.4920   -8.9805 C.3     1  UNL1        0.1713
     10 C          17.3546   72.6154   -7.9848 C.3     1  UNL1        0.1895
     11 C          19.5380   73.2950   -8.5730 C.3     1  UNL1        0.1764
     12 C          18.3016   71.4352   -7.8502 C.3     1  UNL1        0.2383
     13 H          17.0026   73.0919  -10.5850 H       1  UNL1        0.2105
     14 H          15.5084   73.0212   -8.5107 H       1  UNL1        0.2106
     15 O          16.1410   69.8646   -6.9328 O.2     1  UNL1       -0.2464
     16 O          18.1588   69.1459   -2.8515 O.2     1  UNL1       -0.2670
     17 N          18.2363   70.8255   -6.5522 N.ar    1  UNL1       -0.2551
     18 N          17.1476   69.5090   -4.9006 N.ar    1  UNL1       -0.2743
     19 C          17.1056   70.0559   -6.1898 C.ar    1  UNL1        0.3323
     20 C          19.2843   70.9909   -5.6547 C.ar    1  UNL1        0.0869
     21 C          19.3100   70.4633   -4.4293 C.ar    1  UNL1        0.0795
     22 C          18.1669   69.6461   -3.9723 C.ar    1  UNL1        0.2626
     23 H          16.3705   68.9709   -4.6250 H       1  UNL1        0.1734
     24 O          22.0445   74.7602   -5.7766 O.3     1  UNL1       -0.2703
     25 P          21.7768   75.5125   -4.3709 P.3     1  UNL1        0.2208
     26 O          20.2336   75.9859   -4.4928 O.co2   1  UNL1       -0.4371
     27 O          22.7424   76.6228   -4.0730 O.2     1  UNL1       -0.5170
     28 O          21.7548   74.3315   -3.2722 O.3     1  UNL1       -0.2858
     29 O          22.6748   73.8382   -1.1463 O.3     1  UNL1       -0.3226
     30 O          23.4867   70.3698   -3.2389 O.3     1  UNL1       -0.3794
     31 O          23.8534   72.9798   -4.4990 O.3     1  UNL1       -0.3775
     32 O          21.3311   70.4270   -1.2894 O.3     1  UNL1       -0.3792
     33 C          22.7449   71.5392   -2.8922 C.3     1  UNL1        0.1718
     34 C          23.6122   72.7791   -3.1111 C.3     1  UNL1        0.1968
     35 C          22.3421   71.4246   -1.4203 C.3     1  UNL1        0.1723
     36 C          22.9386   74.0263   -2.5372 C.3     1  UNL1        0.2706
     37 C          21.7954   72.7460   -0.8878 C.3     1  UNL1        0.1830
     38 H          23.7535   70.4203   -4.1703 H       1  UNL1        0.2105
     39 H          24.2805   72.1921   -4.8698 H       1  UNL1        0.2106
     40 H          21.6662   69.5809   -1.6249 H       1  UNL1        0.2106
     41 O          22.7063   73.4764    1.1465 O.co2   1  UNL1       -0.5466
     42 O          20.8777   72.1185    1.2536 O.co2   1  UNL1       -0.5466
     43 C          21.7165   72.7247    0.6041 C.2     1  UNL1        0.0799
@<TRIPOS>UNITY_ATOM_ATTR
2 1
charge -1
26 1
charge -1
41 1
charge -1
@<TRIPOS>BOND
     1     1     4    1
     2     1    24    1
     3     1     2    1
     4     1     3    2
     5    25    28    1
     6    25    24    1
     7    25    26    1
     8    25    27    2
     9     6    11    1
    10     6    12    1
    11    29    36    1
    12    29    37    1
    13     7     9    1
    14     7    13    1
    15     8    10    1
    16     8    14    1
    17     4     5    1
    18    28    36    1
    19    30    33    1
    20    30    38    1
    21    31    34    1
    22    31    39    1
    23    32    35    1
    24    32    40    1
    25    41    43   ar
    26    15    19    2
    27    42    43   ar
    28    16    22    2
    29    17    12    1
    30    17    19   ar
    31    17    20   ar
    32    18    19   ar
    33    18    22   ar
    34    18    23    1
    35     9    10    1
    36     9    11    1
    37    10    12    1
    38    11     5    1
    39    33    34    1
    40    33    35    1
    41    34    36    1
    42    35    37    1
    43    37    43    1
    44    20    21   ar
    45    21    22   ar
@<TRIPOS>MOLECULE
*****
 43 45 0 0 0
SMALL
GASTEIGER

@<TRIPOS>ATOM
      1 P          19.8206   73.9511   -3.7203 P.3     1  UNL1        0.2189
      2 O          18.8184   74.8765   -4.5909 O.co2   1  UNL1       -0.4371
      3 O          19.2253   72.6665   -3.2229 O.2     1  UNL1       -0.5170
      4 O          20.3827   74.9527   -2.5806 O.3     1  UNL1       -0.3112
      5 C          19.5888   75.1826   -1.4311 C.3     1  UNL1        0.1811
      6 O          20.8199   74.7857    0.5948 O.3     1  UNL1       -0.3308
      7 O          22.2161   77.3796    0.0345 O.3     1  UNL1       -0.3794
      8 O          24.0406   75.5299   -0.7936 O.3     1  UNL1       -0.3779
      9 C          21.7645   76.3806   -0.8801 C.3     1  UNL1        0.1713
     10 C          22.6749   75.1720   -0.8277 C.3     1  UNL1        0.1895
     11 C          20.4541   75.8156   -0.3491 C.3     1  UNL1        0.1764
     12 C          22.2176   74.4877    0.4492 C.3     1  UNL1        0.2383
     13 H          23.0524   77.7553   -0.2837 H       1  UNL1        0.2105
     14 H          24.2827   75.9615   -1.6285 H       1  UNL1        0.2106
     15 O          22.8405   73.0378   -1.8931 O.2     1  UNL1       -0.2464
     16 O          22.8498   69.0249    0.3742 O.2     1  UNL1       -0.2670
     17 N          22.3885   73.0632    0.3990 N.ar    1  UNL1       -0.2551
     18 N          22.8435   71.0404   -0.7618 N.ar    1  UNL1       -0.2743
     19 C          22.7001   72.4326   -0.8287 C.ar    1  UNL1        0.3323
     20 C          22.2491   72.3068    1.5562 C.ar    1  UNL1        0.0869
     21 C          22.3889   70.9805    1.6043 C.ar    1  UNL1        0.0795
     22 C          22.7139   70.2446    0.3649 C.ar    1  UNL1        0.2626
     23 H          23.0586   70.5789   -1.6045 H       1  UNL1        0.1734
     24 O          21.0913   73.7685   -4.7025 O.3     1  UNL1       -0.2703
     25 P          21.1814   73.6640   -6.3133 P.3     1  UNL1        0.2208
     26 O          22.4643   72.7057   -6.5505 O.co2   1  UNL1       -0.4371
     27 O          21.2620   74.9898   -7.0129 O.2     1  UNL1       -0.5170
     28 O          19.9141   72.7598   -6.7362 O.3     1  UNL1       -0.2858
     29 O          19.0648   70.6659   -6.0266 O.3     1  UNL1       -0.3226
     30 O          18.4556   70.4805  -10.1086 O.3     1  UNL1       -0.3794
     31 O          20.9425   71.5702   -9.0304 O.3     1  UNL1       -0.3775
     32 O          16.2178   70.9754   -8.3203 O.3     1  UNL1       -0.3792
     33 C          18.5672   71.1161   -8.8352 C.3     1  UNL1        0.1718
     34 C          19.9650   70.8760   -8.2641 C.3     1  UNL1        0.1968
     35 C          17.5047   70.5155   -7.9121 C.3     1  UNL1        0.1723
     36 C          20.0493   71.3417   -6.8099 C.3     1  UNL1        0.2706
     37 C          17.7316   70.9264   -6.4601 C.3     1  UNL1        0.1830
     38 H          19.1213   70.8462  -10.7122 H       1  UNL1        0.2105
     39 H          20.8944   71.2798   -9.9544 H       1  UNL1        0.2106
     40 H          16.0609   70.7205   -9.2429 H       1  UNL1        0.2106
     41 O          16.3119   69.0756   -6.2134 O.co2   1  UNL1       -0.5466
     42 O          16.7871   70.2796   -4.3362 O.co2   1  UNL1       -0.5466
     43 C          16.9088   70.0880   -5.5368 C.2     1  UNL1        0.0799
@<TRIPOS>UNITY_ATOM_ATTR
2 1
charge -1
26 1
charge -1
41 1
charge -1
@<TRIPOS>BOND
     1     1     4    1
     2     1    24    1
     3     1     2    1
     4     1     3    2
     5    25    28    1
     6    25    24    1
     7    25    26    1
     8    25    27    2
     9     6    11    1
    10     6    12    1
    11    29    36    1
    12    29    37    1
    13     7     9    1
    14     7    13    1
    15     8    10    1
    16     8    14    1
    17     4     5    1
    18    28    36    1
    19    30    33    1
    20    30    38    1
    21    31    34    1
    22    31    39    1
    23    32    35    1
    24    32    40    1
    25    41    43   ar
    26    15    19    2
    27    42    43   ar
    28    16    22    2
    29    17    12    1
    30    17    19   ar
    31    17    20   ar
    32    18    19   ar
    33    18    22   ar
    34    18    23    1
    35     9    10    1
    36     9    11    1
    37    10    12    1
    38    11     5    1
    39    33    34    1
    40    33    35    1
    41    34    36    1
    42    35    37    1
    43    37    43    1
    44    20    21   ar
    45    21    22   ar
@<TRIPOS>MOLECULE
*****
 43 45 0 0 0
SMALL
GASTEIGER

@<TRIPOS>ATOM
      1 P          22.1480   73.0027   -5.0593 P.3     1  UNL1        0.2189
      2 O          21.3135   74.3717   -5.2789 O.co2   1  UNL1       -0.4371
      3 O          23.5881   73.1921   -4.6821 O.2     1  UNL1       -0.5170
      4 O          21.8818   72.1634   -6.4167 O.3     1  UNL1       -0.3112
      5 C          21.3801   72.8499   -7.5487 C.3     1  UNL1        0.1811
      6 O          19.8896   70.9654   -7.4819 O.3     1  UNL1       -0.3308
      7 O          19.0788   71.7445  -10.2617 O.3     1  UNL1       -0.3794
      8 O          17.0335   72.7246   -8.7477 O.3     1  UNL1       -0.3779
      9 C          19.4261   72.5769   -9.1549 C.3     1  UNL1        0.1713
     10 C          18.3022   72.5963   -8.1406 C.3     1  UNL1        0.1895
     11 C          20.5418   71.8882   -8.3810 C.3     1  UNL1        0.1764
     12 C          18.4840   71.2592   -7.4428 C.3     1  UNL1        0.2383
     13 H          18.3675   72.1638  -10.7714 H       1  UNL1        0.2105
     14 H          16.9672   73.5921   -9.1779 H       1  UNL1        0.2106
     15 O          18.3003   73.6073   -5.8843 O.2     1  UNL1       -0.2464
     16 O          16.8131   71.2663   -2.2030 O.2     1  UNL1       -0.2670
     17 N          18.0517   71.2920   -6.0743 N.ar    1  UNL1       -0.2551
     18 N          17.5608   72.4390   -4.0520 N.ar    1  UNL1       -0.2743
     19 C          17.9954   72.5244   -5.3812 C.ar    1  UNL1        0.3323
     20 C          17.6879   70.1140   -5.4334 C.ar    1  UNL1        0.0869
     21 C          17.2755   70.0485   -4.1659 C.ar    1  UNL1        0.0795
     22 C          17.1889   71.2911   -3.3711 C.ar    1  UNL1        0.2626
     23 H          17.5152   73.2838   -3.5484 H       1  UNL1        0.1734
     24 O          21.2633   72.2104   -3.9627 O.3     1  UNL1       -0.2703
     25 P          21.5903   70.8909   -3.0876 P.3     1  UNL1        0.2208
     26 O          23.1797   70.6825   -3.3124 O.co2   1  UNL1       -0.4371
     27 O          20.7538   69.6952   -3.4404 O.2     1  UNL1       -0.5170
     28 O          21.4557   71.3732   -1.5541 O.3     1  UNL1       -0.2858
     29 O          23.2041   72.7186   -0.6924 O.3     1  UNL1       -0.3226
     30 O          21.1863   71.6546    2.7521 O.3     1  UNL1       -0.3794
     31 O          21.6632   69.6857    0.6472 O.3     1  UNL1       -0.3775
     32 O          20.8890   74.3298    1.6542 O.3     1  UNL1       -0.3792
     33 C          21.3218   71.9770    1.3681 C.3     1  UNL1        0.1718
     34 C          22.2629   70.9751    0.6989 C.3     1  UNL1        0.1968
     35 C          21.8924   73.3933    1.2661 C.3     1  UNL1        0.1723
     36 C          22.6135   71.4186   -0.7221 C.3     1  UNL1        0.2706
     37 C          22.3344   73.7145   -0.1587 C.3     1  UNL1        0.1830
     38 H          20.8253   70.7585    2.8417 H       1  UNL1        0.2105
     39 H          21.4379   69.3982    1.5455 H       1  UNL1        0.2106
     40 H          20.5988   74.1363    2.5593 H       1  UNL1        0.2106
     41 O          24.4522   74.6468   -0.5429 O.co2   1  UNL1       -0.5466
     42 O          22.7832   76.0741    0.0709 O.co2   1  UNL1       -0.5466
     43 C          23.1785   74.9470   -0.1871 C.2     1  UNL1        0.0799
@<TRIPOS>UNITY_ATOM_ATTR
2 1
charge -1
26 1
charge -1
41 1
charge -1
@<TRIPOS>BOND
     1     1     4    1
     2     1    24    1
     3     1     2    1
     4     1     3    2
     5    25    28    1
     6    25    24    1
     7    25    26    1
     8    25    27    2
     9     6    11    1
    10     6    12    1
    11    29    36    1
    12    29    37    1
    13     7     9    1
    14     7    13    1
    15     8    10    1
    16     8    14    1
    17     4     5    1
    18    28    36    1
    19    30    33    1
    20    30    38    1
    21    31    34    1
    22    31    39    1
    23    32    35    1
    24    32    40    1
    25    41    43   ar
    26    15    19    2
    27    42    43   ar
    28    16    22    2
    29    17    12    1
    30    17    19   ar
    31    17    20   ar
    32    18    19   ar
    33    18    22   ar
    34    18    23    1
    35     9    10    1
    36     9    11    1
    37    10    12    1
    38    11     5    1
    39    33    34    1
    40    33    35    1
    41    34    36    1
    42    35    37    1
    43    37    43    1
    44    20    21   ar
    45    21    22   ar
@<TRIPOS>MOLECULE
*****
 43 45 0 0 0
SMALL
GASTEIGER

@<TRIPOS>ATOM
      1 P          22.6628   72.0167   -2.9183 P.3     1  UNL1        0.2189
      2 O          23.0802   70.4890   -3.2512 O.co2   1  UNL1       -0.4371
      3 O          22.3443   72.2867   -1.4770 O.2     1  UNL1       -0.5170
      4 O          21.4760   72.3335   -3.9714 O.3     1  UNL1       -0.3112
      5 C          20.6695   71.2614   -4.4238 C.3     1  UNL1        0.1811
      6 O          18.4758   72.0291   -3.8103 O.3     1  UNL1       -0.3308
      7 O          18.1893   69.4412   -2.3230 O.3     1  UNL1       -0.3794
      8 O          16.7893   68.9693   -4.6150 O.3     1  UNL1       -0.3779
      9 C          18.8529   69.7041   -3.5595 C.3     1  UNL1        0.1713
     10 C          17.8390   69.9128   -4.6644 C.3     1  UNL1        0.1895
     11 C          19.5037   71.0770   -3.4608 C.3     1  UNL1        0.1764
     12 C          17.3644   71.3303   -4.3933 C.3     1  UNL1        0.2383
     13 H          17.7656   68.5690   -2.3620 H       1  UNL1        0.2105
     14 H          17.1424   68.0832   -4.7942 H       1  UNL1        0.2106
     15 O          14.9826   72.8259   -4.6514 O.2     1  UNL1       -0.2464
     16 O          15.9173   73.9013   -9.0347 O.2     1  UNL1       -0.2670
     17 N          16.9607   72.0115   -5.5907 N.ar    1  UNL1       -0.2551
     18 N          15.4499   73.3592   -6.8346 N.ar    1  UNL1       -0.2743
     19 C          15.7450   72.7350   -5.6155 C.ar    1  UNL1        0.3323
     20 C          17.7653   71.9604   -6.7225 C.ar    1  UNL1        0.0869
     21 C          17.4708   72.5607   -7.8774 C.ar    1  UNL1        0.0795
     22 C          16.2180   73.3365   -7.9874 C.ar    1  UNL1        0.2626
     23 H          14.6076   73.8672   -6.8767 H       1  UNL1        0.1734
     24 O          23.9055   72.8683   -3.5042 O.3     1  UNL1       -0.2703
     25 P          24.2874   74.4316   -3.3503 P.3     1  UNL1        0.2208
     26 O          24.5313   74.5978   -1.7587 O.co2   1  UNL1       -0.4371
     27 O          23.2674   75.3738   -3.9213 O.2     1  UNL1       -0.5170
     28 O          25.7570   74.5602   -4.0032 O.3     1  UNL1       -0.2858
     29 O          27.5931   75.6545   -2.9832 O.3     1  UNL1       -0.3226
     30 O          28.6036   75.8681   -6.9833 O.3     1  UNL1       -0.3794
     31 O          25.8557   76.3595   -6.1218 O.3     1  UNL1       -0.3775
     32 O          29.9356   73.9593   -5.2418 O.3     1  UNL1       -0.3792
     33 C          28.0138   75.2936   -5.8171 C.3     1  UNL1        0.1718
     34 C          26.9712   76.2543   -5.2447 C.3     1  UNL1        0.1968
     35 C          29.1272   75.0469   -4.7967 C.3     1  UNL1        0.1723
     36 C          26.4845   75.7804   -3.8746 C.3     1  UNL1        0.2706
     37 C          28.5579   74.7015   -3.4236 C.3     1  UNL1        0.1830
     38 H          27.9147   76.0338   -7.6461 H       1  UNL1        0.2105
     39 H          26.1573   76.6595   -6.9933 H       1  UNL1        0.2106
     40 H          30.3039   74.1663   -6.1149 H       1  UNL1        0.2106
     41 O          30.6369   75.5802   -2.7854 O.co2   1  UNL1       -0.5466
     42 O          29.5773   74.2243   -1.2895 O.co2   1  UNL1       -0.5466
     43 C          29.6173   74.7867   -2.3735 C.2     1  UNL1        0.0799
@<TRIPOS>UNITY_ATOM_ATTR
2 1
charge -1
26 1
charge -1
41 1
charge -1
@<TRIPOS>BOND
     1     1     4    1
     2     1    24    1
     3     1     2    1
     4     1     3    2
     5    25    28    1
     6    25    24    1
     7    25    26    1
     8    25    27    2
     9     6    11    1
    10     6    12    1
    11    29    36    1
    12    29    37    1
    13     7     9    1
    14     7    13    1
    15     8    10    1
    16     8    14    1
    17     4     5    1
    18    28    36    1
    19    30    33    1
    20    30    38    1
    21    31    34    1
    22    31    39    1
    23    32    35    1
    24    32    40    1
    25    41    43   ar
    26    15    19    2
    27    42    43   ar
    28    16    22    2
    29    17    12    1
    30    17    19   ar
    31    17    20   ar
    32    18    19   ar
    33    18    22   ar
    34    18    23    1
    35     9    10    1
    36     9    11    1
    37    10    12    1
    38    11     5    1
    39    33    34    1
    40    33    35    1
    41    34    36    1
    42    35    37    1
    43    37    43    1
    44    20    21   ar
    45    21    22   ar
@<TRIPOS>MOLECULE
*****
 43 45 0 0 0
SMALL
GASTEIGER

@<TRIPOS>ATOM
      1 P          18.9712   70.3721   -3.2461 P.3     1  UNL1        0.2189
      2 O          18.5675   69.0427   -2.4162 O.co2   1  UNL1       -0.4371
      3 O          18.5864   71.6675   -2.5936 O.2     1  UNL1       -0.5170
      4 O          18.3502   70.1150   -4.7178 O.3     1  UNL1       -0.3112
      5 C          18.9456   70.7648   -5.8259 C.3     1  UNL1        0.1811
      6 O          16.8007   70.7806   -6.9108 O.3     1  UNL1       -0.3308
      7 O          18.3014   70.3633   -9.4731 O.3     1  UNL1       -0.3794
      8 O          17.7456   73.0322   -9.5360 O.3     1  UNL1       -0.3779
      9 C          18.6660   71.1336   -8.3275 C.3     1  UNL1        0.1713
     10 C          17.8522   72.4092   -8.2731 C.3     1  UNL1        0.1895
     11 C          18.1802   70.3927   -7.0892 C.3     1  UNL1        0.1764
     12 C          16.5154   71.9085   -7.7533 C.3     1  UNL1        0.2383
     13 H          18.6014   70.8167  -10.2769 H       1  UNL1        0.2105
     14 H          18.6225   73.3334   -9.8230 H       1  UNL1        0.2106
     15 O          14.8535   73.9062   -8.8596 O.2     1  UNL1       -0.2464
     16 O          13.8963   75.6657   -4.7084 O.2     1  UNL1       -0.2670
     17 N          15.8197   72.9014   -6.9846 N.ar    1  UNL1       -0.2551
     18 N          14.3792   74.7812   -6.7911 N.ar    1  UNL1       -0.2743
     19 C          15.0100   73.8604   -7.6380 C.ar    1  UNL1        0.3323
     20 C          15.9413   72.9178   -5.6005 C.ar    1  UNL1        0.0869
     21 C          15.3337   73.8017   -4.8066 C.ar    1  UNL1        0.0795
     22 C          14.4701   74.8379   -5.4097 C.ar    1  UNL1        0.2626
     23 H          13.8117   75.4600   -7.2231 H       1  UNL1        0.1734
     24 O          20.5589   70.1834   -3.4835 O.3     1  UNL1       -0.2703
     25 P          21.8186   71.0682   -2.9896 P.3     1  UNL1        0.2208
     26 O          21.5338   72.5183   -3.6503 O.co2   1  UNL1       -0.4371
     27 O          23.1566   70.4824   -3.3369 O.2     1  UNL1       -0.5170
     28 O          21.5723   71.2850   -1.4101 O.3     1  UNL1       -0.2858
     29 O          23.1974   72.7746   -0.5445 O.3     1  UNL1       -0.3226
     30 O          21.0972   71.7493    2.8624 O.3     1  UNL1       -0.3794
     31 O          21.7832   69.7179    0.8781 O.3     1  UNL1       -0.3775
     32 O          20.6891   74.3471    1.6230 O.3     1  UNL1       -0.3792
     33 C          21.2739   72.0147    1.4708 C.3     1  UNL1        0.1718
     34 C          22.3019   71.0429    0.8910 C.3     1  UNL1        0.1968
     35 C          21.7627   73.4573    1.3229 C.3     1  UNL1        0.1723
     36 C          22.6875   71.4406   -0.5345 C.3     1  UNL1        0.2706
     37 C          22.2471   73.7386   -0.0966 C.3     1  UNL1        0.1830
     38 H          20.7868   70.8378    2.9810 H       1  UNL1        0.2105
     39 H          21.5362   69.4591    1.7794 H       1  UNL1        0.2106
     40 H          20.3714   74.1783    2.5238 H       1  UNL1        0.2106
     41 O          24.2409   74.8648    0.4113 O.co2   1  UNL1       -0.5466
     42 O          22.6072   76.0628   -0.6351 O.co2   1  UNL1       -0.5466
     43 C          23.0164   75.0183   -0.1508 C.2     1  UNL1        0.0799
@<TRIPOS>UNITY_ATOM_ATTR
2 1
charge -1
26 1
charge -1
41 1
charge -1
@<TRIPOS>BOND
     1     1     4    1
     2     1    24    1
     3     1     2    1
     4     1     3    2
     5    25    28    1
     6    25    24    1
     7    25    26    1
     8    25    27    2
     9     6    11    1
    10     6    12    1
    11    29    36    1
    12    29    37    1
    13     7     9    1
    14     7    13    1
    15     8    10    1
    16     8    14    1
    17     4     5    1
    18    28    36    1
    19    30    33    1
    20    30    38    1
    21    31    34    1
    22    31    39    1
    23    32    35    1
    24    32    40    1
    25    41    43   ar
    26    15    19    2
    27    42    43   ar
    28    16    22    2
    29    17    12    1
    30    17    19   ar
    31    17    20   ar
    32    18    19   ar
    33    18    22   ar
    34    18    23    1
    35     9    10    1
    36     9    11    1
    37    10    12    1
    38    11     5    1
    39    33    34    1
    40    33    35    1
    41    34    36    1
    42    35    37    1
    43    37    43    1
    44    20    21   ar
    45    21    22   ar
@<TRIPOS>MOLECULE
*****
 43 45 0 0 0
SMALL
GASTEIGER

@<TRIPOS>ATOM
      1 P          21.5446   72.5386   -4.8988 P.3     1  UNL1        0.2189
      2 O          20.7888   73.6465   -3.9931 O.co2   1  UNL1       -0.4371
      3 O          22.8726   72.9691   -5.4492 O.2     1  UNL1       -0.5170
      4 O          20.4347   72.1107   -5.9957 O.3     1  UNL1       -0.3112
      5 C          20.7636   72.2200   -7.3684 C.3     1  UNL1        0.1811
      6 O          18.4623   71.5475   -7.5402 O.3     1  UNL1       -0.3308
      7 O          19.0548   70.9161  -10.4111 O.3     1  UNL1       -0.3794
      8 O          17.7960   73.3293  -10.5792 O.3     1  UNL1       -0.3779
      9 C          19.5592   71.9742   -9.5958 C.3     1  UNL1        0.1713
     10 C          18.4937   73.0296   -9.3884 C.3     1  UNL1        0.1895
     11 C          19.7487   71.4314   -8.1860 C.3     1  UNL1        0.1764
     12 C          17.6074   72.3810   -8.3388 C.3     1  UNL1        0.2383
     13 H          18.9255   71.2390  -11.3170 H       1  UNL1        0.2105
     14 H          18.4032   73.7404  -11.2149 H       1  UNL1        0.2106
     15 O          15.0865   73.5438   -8.8577 O.2     1  UNL1       -0.2464
     16 O          15.2559   76.0711   -5.0070 O.2     1  UNL1       -0.2670
     17 N          16.9692   73.3456   -7.4885 N.ar    1  UNL1       -0.2551
     18 N          15.1737   74.8022   -6.9399 N.ar    1  UNL1       -0.2743
     19 C          15.7022   73.8680   -7.8405 C.ar    1  UNL1        0.3323
     20 C          17.5960   73.7632   -6.3207 C.ar    1  UNL1        0.0869
     21 C          17.0797   74.6543   -5.4721 C.ar    1  UNL1        0.0795
     22 C          15.7596   75.2491   -5.7666 C.ar    1  UNL1        0.2626
     23 H          14.2934   75.1815   -7.1647 H       1  UNL1        0.1734
     24 O          21.6055   71.2518   -3.9224 O.3     1  UNL1       -0.2703
     25 P          20.5601   70.7093   -2.8149 P.3     1  UNL1        0.2208
     26 O          21.0276   69.1768   -2.5845 O.co2   1  UNL1       -0.4371
     27 O          19.1177   70.8644   -3.2015 O.2     1  UNL1       -0.5170
     28 O          20.9740   71.4703   -1.4540 O.3     1  UNL1       -0.2858
     29 O          23.0176   72.5904   -1.0318 O.3     1  UNL1       -0.3226
     30 O          21.8568   71.4945    2.7786 O.3     1  UNL1       -0.3794
     31 O          21.5631   69.6313    0.5478 O.3     1  UNL1       -0.3775
     32 O          21.5706   74.2515    1.9023 O.3     1  UNL1       -0.3792
     33 C          21.6636   71.8925    1.4213 C.3     1  UNL1        0.1718
     34 C          22.2887   70.8539    0.4896 C.3     1  UNL1        0.1968
     35 C          22.3349   73.2540    1.2276 C.3     1  UNL1        0.1723
     36 C          22.3054   71.3549   -0.9553 C.3     1  UNL1        0.2706
     37 C          22.4256   73.6252   -0.2497 C.3     1  UNL1        0.1830
     38 H          21.4384   70.6315    2.9254 H       1  UNL1        0.2105
     39 H          21.5483   69.3078    1.4618 H       1  UNL1        0.2106
     40 H          21.5052   74.0270    2.8437 H       1  UNL1        0.2106
     41 O          22.6689   75.9333   -0.5887 O.co2   1  UNL1       -0.5466
     42 O          24.5776   74.6900   -0.4873 O.co2   1  UNL1       -0.5466
     43 C          23.3591   74.7741   -0.4517 C.2     1  UNL1        0.0799
@<TRIPOS>UNITY_ATOM_ATTR
2 1
charge -1
26 1
charge -1
41 1
charge -1
@<TRIPOS>BOND
     1     1     4    1
     2     1    24    1
     3     1     2    1
     4     1     3    2
     5    25    28    1
     6    25    24    1
     7    25    26    1
     8    25    27    2
     9     6    11    1
    10     6    12    1
    11    29    36    1
    12    29    37    1
    13     7     9    1
    14     7    13    1
    15     8    10    1
    16     8    14    1
    17     4     5    1
    18    28    36    1
    19    30    33    1
    20    30    38    1
    21    31    34    1
    22    31    39    1
    23    32    35    1
    24    32    40    1
    25    41    43   ar
    26    15    19    2
    27    42    43   ar
    28    16    22    2
    29    17    12    1
    30    17    19   ar
    31    17    20   ar
    32    18    19   ar
    33    18    22   ar
    34    18    23    1
    35     9    10    1
    36     9    11    1
    37    10    12    1
    38    11     5    1
    39    33    34    1
    40    33    35    1
    41    34    36    1
    42    35    37    1
    43    37    43    1
    44    20    21   ar
    45    21    22   ar
@<TRIPOS>MOLECULE
*****
 43 45 0 0 0
SMALL
GASTEIGER

@<TRIPOS>ATOM
      1 P          21.9239   73.1981   -4.4817 P.3     1  UNL1        0.2189
      2 O          21.7005   74.5234   -3.5804 O.co2   1  UNL1       -0.4371
      3 O          23.3465   72.9360   -4.8812 O.2     1  UNL1       -0.5170
      4 O          20.8733   73.3746   -5.6995 O.3     1  UNL1       -0.3112
      5 C          21.2241   72.8675   -6.9740 C.3     1  UNL1        0.1811
      6 O          19.0504   71.8427   -6.9230 O.3     1  UNL1       -0.3308
      7 O          20.2013   69.7462   -8.7318 O.3     1  UNL1       -0.3794
      8 O          18.8141   71.3312  -10.4637 O.3     1  UNL1       -0.3779
      9 C          20.4671   71.1484   -8.6899 C.3     1  UNL1        0.1713
     10 C          19.3045   71.9200   -9.2773 C.3     1  UNL1        0.1895
     11 C          20.4379   71.5887   -7.2326 C.3     1  UNL1        0.1764
     12 C          18.2941   71.8797   -8.1436 C.3     1  UNL1        0.2383
     13 H          20.2148   69.4417   -9.6531 H       1  UNL1        0.2105
     14 H          19.4938   71.3821  -11.1547 H       1  UNL1        0.2106
     15 O          19.1458   74.5014   -8.7579 O.2     1  UNL1       -0.2464
     16 O          14.9316   76.2309   -8.0555 O.2     1  UNL1       -0.2670
     17 N          17.4403   73.0337   -8.1291 N.ar    1  UNL1       -0.2551
     18 N          17.0463   75.3605   -8.4065 N.ar    1  UNL1       -0.2743
     19 C          17.9677   74.3060   -8.4534 C.ar    1  UNL1        0.3323
     20 C          16.0975   72.8988   -7.7982 C.ar    1  UNL1        0.0869
     21 C          15.2314   73.9133   -7.7579 C.ar    1  UNL1        0.0795
     22 C          15.7019   75.2759   -8.0825 C.ar    1  UNL1        0.2626
     23 H          17.3906   76.2562   -8.6265 H       1  UNL1        0.1734
     24 O          21.2503   72.0327   -3.5867 O.3     1  UNL1       -0.2703
     25 P          19.9234   72.0369   -2.6631 P.3     1  UNL1        0.2208
     26 O          19.3337   70.5418   -2.8562 O.co2   1  UNL1       -0.4371
     27 O          18.9499   73.1324   -2.9887 O.2     1  UNL1       -0.5170
     28 O          20.4789   72.0630   -1.1488 O.3     1  UNL1       -0.2858
     29 O          21.8742   73.5597    0.0438 O.3     1  UNL1       -0.3226
     30 O          23.0970   69.9043    1.5309 O.3     1  UNL1       -0.3794
     31 O          22.5738   70.2418   -1.3234 O.3     1  UNL1       -0.3775
     32 O          21.3987   71.6370    3.1324 O.3     1  UNL1       -0.3792
     33 C          22.1718   70.8481    0.9911 C.3     1  UNL1        0.1718
     34 C          22.6543   71.3082   -0.3847 C.3     1  UNL1        0.1968
     35 C          22.0934   72.0363    1.9524 C.3     1  UNL1        0.1723
     36 C          21.8178   72.4833   -0.8931 C.3     1  UNL1        0.2706
     37 C          21.3519   73.2129    1.3244 C.3     1  UNL1        0.1830
     38 H          23.1634   69.1402    0.9367 H       1  UNL1        0.2105
     39 H          23.1021   69.4927   -1.0070 H       1  UNL1        0.2106
     40 H          21.8604   70.8886    3.5418 H       1  UNL1        0.2106
     41 O          20.7765   75.4622    1.6580 O.co2   1  UNL1       -0.5466
     42 O          22.3331   74.5672    3.0635 O.co2   1  UNL1       -0.5466
     43 C          21.5626   74.4590    2.1213 C.2     1  UNL1        0.0799
@<TRIPOS>UNITY_ATOM_ATTR
2 1
charge -1
26 1
charge -1
41 1
charge -1
@<TRIPOS>BOND
     1     1     4    1
     2     1    24    1
     3     1     2    1
     4     1     3    2
     5    25    28    1
     6    25    24    1
     7    25    26    1
     8    25    27    2
     9     6    11    1
    10     6    12    1
    11    29    36    1
    12    29    37    1
    13     7     9    1
    14     7    13    1
    15     8    10    1
    16     8    14    1
    17     4     5    1
    18    28    36    1
    19    30    33    1
    20    30    38    1
    21    31    34    1
    22    31    39    1
    23    32    35    1
    24    32    40    1
    25    41    43   ar
    26    15    19    2
    27    42    43   ar
    28    16    22    2
    29    17    12    1
    30    17    19   ar
    31    17    20   ar
    32    18    19   ar
    33    18    22   ar
    34    18    23    1
    35     9    10    1
    36     9    11    1
    37    10    12    1
    38    11     5    1
    39    33    34    1
    40    33    35    1
    41    34    36    1
    42    35    37    1
    43    37    43    1
    44    20    21   ar
    45    21    22   ar
@<TRIPOS>MOLECULE
*****
 43 45 0 0 0
SMALL
GASTEIGER

@<TRIPOS>ATOM
      1 P          19.6664   70.3231   -3.8564 P.3     1  UNL1        0.2189
      2 O          19.9926   68.8285   -3.3287 O.co2   1  UNL1       -0.4371
      3 O          18.6237   71.0599   -3.0679 O.2     1  UNL1       -0.5170
      4 O          19.3439   70.1182   -5.4286 O.3     1  UNL1       -0.3112
      5 C          19.1418   71.2660   -6.2325 C.3     1  UNL1        0.1811
      6 O          17.0124   71.0854   -7.3330 O.3     1  UNL1       -0.3308
      7 O          18.5603   70.9175   -9.8957 O.3     1  UNL1       -0.3794
      8 O          17.7187   73.5113   -9.8767 O.3     1  UNL1       -0.3779
      9 C          18.8344   71.6846   -8.7231 C.3     1  UNL1        0.1713
     10 C          17.8869   72.8622   -8.6338 C.3     1  UNL1        0.1895
     11 C          18.4266   70.8551   -7.5132 C.3     1  UNL1        0.1764
     12 C          16.6101   72.2029   -8.1408 C.3     1  UNL1        0.2383
     13 H          18.8127   71.4270  -10.6821 H       1  UNL1        0.2105
     14 H          18.5590   73.9149  -10.1469 H       1  UNL1        0.2106
     15 O          14.7962   74.0923   -9.1975 O.2     1  UNL1       -0.2464
     16 O          13.5838   75.5498   -4.9963 O.2     1  UNL1       -0.2670
     17 N          15.8076   73.0889   -7.3458 N.ar    1  UNL1       -0.2551
     18 N          14.1948   74.8171   -7.1041 N.ar    1  UNL1       -0.2743
     19 C          14.9279   74.0008   -7.9755 C.ar    1  UNL1        0.3323
     20 C          15.8950   73.0480   -5.9596 C.ar    1  UNL1        0.0869
     21 C          15.1898   73.8324   -5.1422 C.ar    1  UNL1        0.0795
     22 C          14.2481   74.8137   -5.7196 C.ar    1  UNL1        0.2626
     23 H          13.5771   75.4616   -7.5193 H       1  UNL1        0.1734
     24 O          21.1210   71.0278   -3.8727 O.3     1  UNL1       -0.2703
     25 P          22.1690   71.3269   -2.6785 P.3     1  UNL1        0.2208
     26 O          23.4910   70.5112   -3.1336 O.co2   1  UNL1       -0.4371
     27 O          21.6624   70.9702   -1.3110 O.2     1  UNL1       -0.5170
     28 O          22.5656   72.8799   -2.8615 O.3     1  UNL1       -0.2858
     29 O          23.2561   73.1784   -5.1072 O.3     1  UNL1       -0.3226
     30 O          23.6579   76.9996   -3.5891 O.3     1  UNL1       -0.3794
     31 O          24.5061   74.6860   -2.0200 O.3     1  UNL1       -0.3775
     32 O          21.4133   76.3442   -5.3163 O.3     1  UNL1       -0.3792
     33 C          23.0847   75.6974   -3.7060 C.3     1  UNL1        0.1718
     34 C          24.1459   74.6414   -3.3958 C.3     1  UNL1        0.1968
     35 C          22.5729   75.5329   -5.1388 C.3     1  UNL1        0.1723
     36 C          23.6369   73.2391   -3.7321 C.3     1  UNL1        0.2706
     37 C          22.2033   74.0823   -5.4351 C.3     1  UNL1        0.1830
     38 H          23.9901   77.1270   -2.6865 H       1  UNL1        0.2105
     39 H          24.8297   75.5732   -1.7995 H       1  UNL1        0.2106
     40 H          21.6350   77.2701   -5.1306 H       1  UNL1        0.2106
     41 O          20.8369   74.3772   -7.3186 O.co2   1  UNL1       -0.5466
     42 O          22.8313   73.3185   -7.6360 O.co2   1  UNL1       -0.5466
     43 C          22.0239   73.8699   -6.9031 C.2     1  UNL1        0.0799
@<TRIPOS>UNITY_ATOM_ATTR
2 1
charge -1
26 1
charge -1
41 1
charge -1
@<TRIPOS>BOND
     1     1     4    1
     2     1    24    1
     3     1     2    1
     4     1     3    2
     5    25    28    1
     6    25    24    1
     7    25    26    1
     8    25    27    2
     9     6    11    1
    10     6    12    1
    11    29    36    1
    12    29    37    1
    13     7     9    1
    14     7    13    1
    15     8    10    1
    16     8    14    1
    17     4     5    1
    18    28    36    1
    19    30    33    1
    20    30    38    1
    21    31    34    1
    22    31    39    1
    23    32    35    1
    24    32    40    1
    25    41    43   ar
    26    15    19    2
    27    42    43   ar
    28    16    22    2
    29    17    12    1
    30    17    19   ar
    31    17    20   ar
    32    18    19   ar
    33    18    22   ar
    34    18    23    1
    35     9    10    1
    36     9    11    1
    37    10    12    1
    38    11     5    1
    39    33    34    1
    40    33    35    1
    41    34    36    1
    42    35    37    1
    43    37    43    1
    44    20    21   ar
    45    21    22   ar
