@<TRIPOS>MOLECULE
GDU
 43 45 0 0 0
SMALL
GASTEIGER

@<TRIPOS>ATOM
      1 P          22.0605   70.8982   -2.4273 P.3     1  UNL1        0.2189
      2 O          21.5012   69.5917   -2.0152 O.2     1  UNL1       -0.5170
      3 O          23.5072   70.6750   -3.0982 O.3     1  UNL1       -0.4371
      4 O          21.0758   71.5917   -3.4933 O.3     1  UNL1       -0.3112
      5 C          20.0971   72.3135   -2.7439 C.3     1  UNL1        0.1811
      6 C          17.8692   71.3573   -5.3990 C.3     1  UNL1        0.2383
      7 C          17.9579   70.1016   -4.4944 C.3     1  UNL1        0.1895
      8 O          16.7382   69.3574   -4.5339 O.3     1  UNL1       -0.3779
      9 C          18.1794   70.7264   -3.0923 C.3     1  UNL1        0.1713
     10 C          18.7229   72.1357   -3.3921 C.3     1  UNL1        0.1764
     11 O          18.8370   72.2584   -4.8205 O.3     1  UNL1       -0.3308
     12 O          16.9442   70.8008   -2.3777 O.3     1  UNL1       -0.3794
     13 H          16.8590   68.5930   -3.9534 H       1  UNL1        0.2106
     14 H          16.6260   69.8939   -2.2731 H       1  UNL1        0.2105
     15 N          18.2311   71.0282   -6.7787 N.ar    1  UNL1       -0.2551
     16 C          17.2699   70.7006   -7.6602 C.ar    1  UNL1        0.3323
     17 N          17.5755   70.3973   -8.9356 N.ar    1  UNL1       -0.2743
     18 C          18.8575   70.4077   -9.3486 C.ar    1  UNL1        0.2626
     19 C          19.8811   70.7453   -8.4295 C.ar    1  UNL1        0.0795
     20 C          19.5465   71.0495   -7.1575 C.ar    1  UNL1        0.0869
     21 O          16.1089   70.6874   -7.3025 O.2     1  UNL1       -0.2464
     22 O          19.1355   70.1287  -10.5015 O.2     1  UNL1       -0.2670
     23 H          16.8686   70.1673   -9.5594 H       1  UNL1        0.1734
     24 O          22.2102   71.8481   -1.1359 O.3     1  UNL1       -0.2703
     25 P          22.4533   70.8823    0.1282 P.3     1  UNL1        0.2208
     26 O          21.2221   70.1087    0.4017 O.2     1  UNL1       -0.5170
     27 O          23.6624   69.8688   -0.1958 O.3     1  UNL1       -0.4371
     28 O          22.8288   71.7687    1.4179 O.3     1  UNL1       -0.2858
     29 C          22.0150   72.9412    1.3668 C.3     1  UNL1        0.2704
     30 C          22.9031   74.1688    1.1579 C.3     1  UNL1        0.1967
     31 C          23.9089   74.2583    2.3098 C.3     1  UNL1        0.1715
     32 C          23.1399   74.2276    3.6354 C.3     1  UNL1        0.1694
     33 C          22.2346   72.9935    3.6571 C.3     1  UNL1        0.1761
     34 O          23.6026   74.0480   -0.0820 O.3     1  UNL1       -0.3775
     35 O          24.6475   75.4776    2.2086 O.3     1  UNL1       -0.3794
     36 O          22.3473   75.4097    3.7555 O.3     1  UNL1       -0.3794
     37 O          21.2918   73.0692    2.5888 O.3     1  UNL1       -0.3258
     38 H          22.9320   73.9876   -0.7759 H       1  UNL1        0.2106
     39 H          25.1038   75.4586    1.3579 H       1  UNL1        0.2105
     40 H          22.9567   76.1589    3.7312 H       1  UNL1        0.2105
     41 C          21.4873   72.9347    4.9913 C.3     1  UNL1        0.1693
     42 O          22.2996   73.5086    6.0169 O.3     1  UNL1       -0.3794
     43 H          21.7933   73.4528    6.8390 H       1  UNL1        0.2105
@<TRIPOS>BOND
     1    15    16   ar
     2    15    20   ar
     3    15     6    1
     4    16    17   ar
     5    16    21    2
     6    17    18   ar
     7    17    23    1
     8    18    19   ar
     9    18    22    2
    10    19    20   ar
    11     6     7    1
    12     6    11    1
    13     7     8    1
    14     7     9    1
    15     8    13    1
    16     9    10    1
    17     9    12    1
    18    10    11    1
    19    10     5    1
    20    12    14    1
    21     5     4    1
    22     4     1    1
    23     1     2    2
    24     1     3    1
    25     1    24    1
    26    24    25    1
    27    25    26    2
    28    25    27    1
    29    25    28    1
    30    28    29    1
    31    29    30    1
    32    29    37    1
    33    30    31    1
    34    30    34    1
    35    31    32    1
    36    31    35    1
    37    32    33    1
    38    32    36    1
    39    33    41    1
    40    33    37    1
    41    41    42    1
    42    34    38    1
    43    35    39    1
    44    36    40    1
    45    42    43    1
@<TRIPOS>MOLECULE
GDU
 43 45 0 0 0
SMALL
GASTEIGER

@<TRIPOS>ATOM
      1 P          22.9030   71.9660   -3.1503 P.3     1  UNL1        0.2189
      2 O          22.8020   72.4159   -1.7443 O.2     1  UNL1       -0.5170
      3 O          23.4793   70.4630   -3.1925 O.3     1  UNL1       -0.4371
      4 O          21.4465   72.0015   -3.8315 O.3     1  UNL1       -0.3112
      5 C          20.4928   71.8707   -2.7761 C.3     1  UNL1        0.1811
      6 C          18.0810   71.2118   -5.3600 C.3     1  UNL1        0.2383
      7 C          18.1132   69.9113   -4.5170 C.3     1  UNL1        0.1895
      8 O          16.8392   69.2632   -4.5304 O.3     1  UNL1       -0.3779
      9 C          18.4448   70.4501   -3.1011 C.3     1  UNL1        0.1713
     10 C          19.0813   71.8275   -3.3643 C.3     1  UNL1        0.1764
     11 O          19.1403   72.0093   -4.7897 O.3     1  UNL1       -0.3308
     12 O          17.2523   70.5827   -2.3250 O.3     1  UNL1       -0.3794
     13 H          16.9266   68.4651   -3.9907 H       1  UNL1        0.2106
     14 H          16.8702   69.6982   -2.2453 H       1  UNL1        0.2105
     15 N          18.3543   70.9227   -6.7688 N.ar    1  UNL1       -0.2551
     16 C          17.3324   70.7022   -7.6147 C.ar    1  UNL1        0.3323
     17 N          17.5562   70.4378   -8.9154 N.ar    1  UNL1       -0.2743
     18 C          18.8152   70.3800   -9.3907 C.ar    1  UNL1        0.2626
     19 C          19.9016   70.6044   -8.5101 C.ar    1  UNL1        0.0795
     20 C          19.6488   70.8718   -7.2112 C.ar    1  UNL1        0.0869
     21 O          16.1913   70.7516   -7.2006 O.2     1  UNL1       -0.2464
     22 O          19.0189   70.1360  -10.5669 O.2     1  UNL1       -0.2670
     23 H          16.8066   70.2855   -9.5126 H       1  UNL1        0.1734
     24 O          23.8975   72.9434   -3.9554 O.3     1  UNL1       -0.2703
     25 P          23.3135   74.4349   -3.7992 P.3     1  UNL1        0.2208
     26 O          22.5544   74.5371   -2.5334 O.2     1  UNL1       -0.5170
     27 O          24.5315   75.4886   -3.7806 O.3     1  UNL1       -0.4371
     28 O          22.3401   74.7637   -5.0379 O.3     1  UNL1       -0.2858
     29 C          23.0962   75.5451   -5.9638 C.3     1  UNL1        0.2704
     30 C          22.4073   76.8946   -6.1728 C.3     1  UNL1        0.1967
     31 C          20.9892   76.6542   -6.6996 C.3     1  UNL1        0.1715
     32 C          21.0733   75.7649   -7.9453 C.3     1  UNL1        0.1694
     33 C          21.8623   74.4993   -7.6010 C.3     1  UNL1        0.1761
     34 O          22.3453   77.5978   -4.9307 O.3     1  UNL1       -0.3775
     35 O          20.3847   77.9040   -7.0388 O.3     1  UNL1       -0.3794
     36 O          21.7329   76.4742   -8.9950 O.3     1  UNL1       -0.3794
     37 O          23.1875   74.8508   -7.2057 O.3     1  UNL1       -0.3258
     38 H          23.2573   77.7204   -4.6337 H       1  UNL1        0.2106
     39 H          20.3637   78.4330   -6.2314 H       1  UNL1        0.2105
     40 H          21.2056   77.2637   -9.1737 H       1  UNL1        0.2105
     41 C          21.9229   73.5882   -8.8291 C.3     1  UNL1        0.1693
     42 O          23.1673   73.7817   -9.5037 O.3     1  UNL1       -0.3794
     43 H          23.1657   73.1904  -10.2690 H       1  UNL1        0.2105
@<TRIPOS>BOND
     1    15    16   ar
     2    15    20   ar
     3    15     6    1
     4    16    17   ar
     5    16    21    2
     6    17    18   ar
     7    17    23    1
     8    18    19   ar
     9    18    22    2
    10    19    20   ar
    11     6     7    1
    12     6    11    1
    13     7     8    1
    14     7     9    1
    15     8    13    1
    16     9    10    1
    17     9    12    1
    18    10    11    1
    19    10     5    1
    20    12    14    1
    21     5     4    1
    22     4     1    1
    23     1     2    2
    24     1     3    1
    25     1    24    1
    26    24    25    1
    27    25    26    2
    28    25    27    1
    29    25    28    1
    30    28    29    1
    31    29    30    1
    32    29    37    1
    33    30    31    1
    34    30    34    1
    35    31    32    1
    36    31    35    1
    37    32    33    1
    38    32    36    1
    39    33    41    1
    40    33    37    1
    41    41    42    1
    42    34    38    1
    43    35    39    1
    44    36    40    1
    45    42    43    1
@<TRIPOS>MOLECULE
GDU
 43 45 0 0 0
SMALL
GASTEIGER

@<TRIPOS>ATOM
      1 P          21.9428   71.3596   -2.0663 P.3     1  UNL1        0.2189
      2 O          22.0306   69.9704   -2.5683 O.2     1  UNL1       -0.5170
      3 O          22.5101   72.3707   -3.1837 O.3     1  UNL1       -0.4371
      4 O          20.4081   71.7192   -1.7468 O.3     1  UNL1       -0.3112
      5 C          20.0377   72.7766   -2.6329 C.3     1  UNL1        0.1811
      6 C          17.8727   71.5507   -5.2285 C.3     1  UNL1        0.2383
      7 C          18.0694   70.3393   -4.2815 C.3     1  UNL1        0.1895
      8 O          16.9133   69.4988   -4.2818 O.3     1  UNL1       -0.3779
      9 C          18.2512   71.0295   -2.9046 C.3     1  UNL1        0.1713
     10 C          18.6771   72.4662   -3.2595 C.3     1  UNL1        0.1764
     11 O          18.7695   72.5466   -4.6924 O.3     1  UNL1       -0.3308
     12 O          17.0198   71.0302   -2.1797 O.3     1  UNL1       -0.3794
     13 H          17.0998   68.7678   -3.6762 H       1  UNL1        0.2106
     14 H          16.7765   70.1050   -2.0400 H       1  UNL1        0.2105
     15 N          18.2487   71.2027   -6.5997 N.ar    1  UNL1       -0.2551
     16 C          17.3029   70.8106   -7.4715 C.ar    1  UNL1        0.3323
     17 N          17.6216   70.4885   -8.7390 N.ar    1  UNL1       -0.2743
     18 C          18.9019   70.5447   -9.1535 C.ar    1  UNL1        0.2626
     19 C          19.9096   70.9503   -8.2446 C.ar    1  UNL1        0.0795
     20 C          19.5619   71.2720   -6.9804 C.ar    1  UNL1        0.0869
     21 O          16.1436   70.7555   -7.1123 O.2     1  UNL1       -0.2464
     22 O          19.1920   70.2487  -10.2993 O.2     1  UNL1       -0.2670
     23 H          16.9255   70.2117   -9.3560 H       1  UNL1        0.1734
     24 O          22.8192   71.5001   -0.7229 O.3     1  UNL1       -0.2703
     25 P          22.0577   70.6622    0.4208 P.3     1  UNL1        0.2208
     26 O          21.1617   69.6683   -0.2102 O.2     1  UNL1       -0.5170
     27 O          23.1404   69.9013    1.3389 O.3     1  UNL1       -0.4371
     28 O          21.1908   71.6641    1.3343 O.3     1  UNL1       -0.2858
     29 C          22.0736   72.7002    1.7668 C.3     1  UNL1        0.2704
     30 C          21.8444   72.9767    3.2535 C.3     1  UNL1        0.1967
     31 C          20.3838   73.3874    3.4649 C.3     1  UNL1        0.1715
     32 C          20.0629   74.5565    2.5269 C.3     1  UNL1        0.1694
     33 C          20.4256   74.1590    1.0940 C.3     1  UNL1        0.1761
     34 O          22.1255   71.7969    4.0087 O.3     1  UNL1       -0.3775
     35 O          20.1901   73.7906    4.8223 O.3     1  UNL1       -0.3794
     36 O          20.8202   75.7031    2.9161 O.3     1  UNL1       -0.3794
     37 O          21.8229   73.8823    1.0103 O.3     1  UNL1       -0.3258
     38 H          23.0505   71.5717    3.8402 H       1  UNL1        0.2106
     39 H          20.4143   73.0310    5.3746 H       1  UNL1        0.2105
     40 H          20.5641   75.9129    3.8237 H       1  UNL1        0.2105
     41 C          20.0770   75.3072    0.1442 C.3     1  UNL1        0.1693
     42 O          18.6669   75.5350    0.1712 O.3     1  UNL1       -0.3794
     43 H          18.4896   76.2646   -0.4384 H       1  UNL1        0.2105
@<TRIPOS>BOND
     1    15    16   ar
     2    15    20   ar
     3    15     6    1
     4    16    17   ar
     5    16    21    2
     6    17    18   ar
     7    17    23    1
     8    18    19   ar
     9    18    22    2
    10    19    20   ar
    11     6     7    1
    12     6    11    1
    13     7     8    1
    14     7     9    1
    15     8    13    1
    16     9    10    1
    17     9    12    1
    18    10    11    1
    19    10     5    1
    20    12    14    1
    21     5     4    1
    22     4     1    1
    23     1     2    2
    24     1     3    1
    25     1    24    1
    26    24    25    1
    27    25    26    2
    28    25    27    1
    29    25    28    1
    30    28    29    1
    31    29    30    1
    32    29    37    1
    33    30    31    1
    34    30    34    1
    35    31    32    1
    36    31    35    1
    37    32    33    1
    38    32    36    1
    39    33    41    1
    40    33    37    1
    41    41    42    1
    42    34    38    1
    43    35    39    1
    44    36    40    1
    45    42    43    1
@<TRIPOS>MOLECULE
GDU
 43 45 0 0 0
SMALL
GASTEIGER

@<TRIPOS>ATOM
      1 P          22.7876   73.2257   -3.1603 P.3     1  UNL1        0.2189
      2 O          22.9641   72.3087   -2.0124 O.2     1  UNL1       -0.5170
      3 O          23.7850   72.7953   -4.3490 O.3     1  UNL1       -0.4371
      4 O          21.2677   73.1485   -3.6806 O.3     1  UNL1       -0.3112
      5 C          20.6274   72.1117   -2.9353 C.3     1  UNL1        0.1811
      6 C          18.2167   71.1604   -5.4275 C.3     1  UNL1        0.2383
      7 C          18.4365   69.8757   -4.5884 C.3     1  UNL1        0.1895
      8 O          17.2499   69.0793   -4.5547 O.3     1  UNL1       -0.3779
      9 C          18.7540   70.4546   -3.1851 C.3     1  UNL1        0.1713
     10 C          19.2102   71.8976   -3.4700 C.3     1  UNL1        0.1764
     11 O          19.1933   72.0810   -4.8962 O.3     1  UNL1       -0.3308
     12 O          17.5843   70.4453   -2.3644 O.3     1  UNL1       -0.3794
     13 H          17.4528   68.2991   -4.0200 H       1  UNL1        0.2106
     14 H          17.3144   69.5216   -2.2718 H       1  UNL1        0.2105
     15 N          18.4695   70.9021   -6.8460 N.ar    1  UNL1       -0.2551
     16 C          17.4444   70.5973   -7.6613 C.ar    1  UNL1        0.3323
     17 N          17.6492   70.3589   -8.9702 N.ar    1  UNL1       -0.2743
     18 C          18.8929   70.4124   -9.4847 C.ar    1  UNL1        0.2626
     19 C          19.9830   70.7266   -8.6366 C.ar    1  UNL1        0.0795
     20 C          19.7490   70.9655   -7.3287 C.ar    1  UNL1        0.0869
     21 O          16.3169   70.5458   -7.2118 O.2     1  UNL1       -0.2464
     22 O          19.0798   70.1920  -10.6683 O.2     1  UNL1       -0.2670
     23 H          16.8972   70.1446   -9.5449 H       1  UNL1        0.1734
     24 O          23.1226   74.7316   -2.6994 O.3     1  UNL1       -0.2703
     25 P          22.1794   75.0536   -1.4358 P.3     1  UNL1        0.2208
     26 O          22.4092   76.4459   -0.9911 O.2     1  UNL1       -0.5170
     27 O          20.6358   74.8738   -1.8590 O.3     1  UNL1       -0.4371
     28 O          22.5264   74.0411   -0.2339 O.3     1  UNL1       -0.2858
     29 C          21.2852   73.6696    0.3671 C.3     1  UNL1        0.2704
     30 C          21.1521   74.3568    1.7271 C.3     1  UNL1        0.1967
     31 C          22.3290   73.9389    2.6141 C.3     1  UNL1        0.1715
     32 C          22.3888   72.4079    2.6599 C.3     1  UNL1        0.1694
     33 C          22.4301   71.8684    1.2280 C.3     1  UNL1        0.1761
     34 O          21.1638   75.7744    1.5502 O.3     1  UNL1       -0.3775
     35 O          22.1421   74.4542    3.9339 O.3     1  UNL1       -0.3794
     36 O          21.2335   71.9046    3.3322 O.3     1  UNL1       -0.3794
     37 O          21.2447   72.2543    0.5338 O.3     1  UNL1       -0.3258
     38 H          20.4124   75.9908    0.9814 H       1  UNL1        0.2106
     39 H          22.0984   75.4156    3.8554 H       1  UNL1        0.2105
     40 H          21.2460   72.2739    4.2248 H       1  UNL1        0.2105
     41 C          22.5245   70.3413    1.2628 C.3     1  UNL1        0.1693
     42 O          21.5121   69.7831    0.4235 O.3     1  UNL1       -0.3794
     43 H          21.6064   68.8218    0.4728 H       1  UNL1        0.2105
@<TRIPOS>BOND
     1    15    16   ar
     2    15    20   ar
     3    15     6    1
     4    16    17   ar
     5    16    21    2
     6    17    18   ar
     7    17    23    1
     8    18    19   ar
     9    18    22    2
    10    19    20   ar
    11     6     7    1
    12     6    11    1
    13     7     8    1
    14     7     9    1
    15     8    13    1
    16     9    10    1
    17     9    12    1
    18    10    11    1
    19    10     5    1
    20    12    14    1
    21     5     4    1
    22     4     1    1
    23     1     2    2
    24     1     3    1
    25     1    24    1
    26    24    25    1
    27    25    26    2
    28    25    27    1
    29    25    28    1
    30    28    29    1
    31    29    30    1
    32    29    37    1
    33    30    31    1
    34    30    34    1
    35    31    32    1
    36    31    35    1
    37    32    33    1
    38    32    36    1
    39    33    41    1
    40    33    37    1
    41    41    42    1
    42    34    38    1
    43    35    39    1
    44    36    40    1
    45    42    43    1
@<TRIPOS>MOLECULE
GDU
 43 45 0 0 0
SMALL
GASTEIGER

@<TRIPOS>ATOM
      1 P          21.8399   70.9052   -0.6134 P.3     1  UNL1        0.2189
      2 O          21.1825   69.6689   -0.1348 O.2     1  UNL1       -0.5170
      3 O          22.9922   70.5248   -1.6720 O.3     1  UNL1       -0.4371
      4 O          20.7509   71.8525   -1.3229 O.3     1  UNL1       -0.3112
      5 C          20.7555   71.5199   -2.7121 C.3     1  UNL1        0.1811
      6 C          18.2430   71.1780   -5.2612 C.3     1  UNL1        0.2383
      7 C          18.1772   69.8472   -4.4690 C.3     1  UNL1        0.1895
      8 O          16.8509   69.3142   -4.4768 O.3     1  UNL1       -0.3779
      9 C          18.5838   70.2981   -3.0419 C.3     1  UNL1        0.1713
     10 C          19.3341   71.6239   -3.2679 C.3     1  UNL1        0.1764
     11 O          19.3801   71.8563   -4.6864 O.3     1  UNL1       -0.3308
     12 O          17.4236   70.5037   -2.2334 O.3     1  UNL1       -0.3794
     13 H          16.8783   68.4907   -3.9699 H       1  UNL1        0.2106
     14 H          16.9665   69.6536   -2.1782 H       1  UNL1        0.2105
     15 N          18.4611   70.9224   -6.6860 N.ar    1  UNL1       -0.2551
     16 C          17.4057   70.7764   -7.5064 C.ar    1  UNL1        0.3323
     17 N          17.5786   70.5442   -8.8210 N.ar    1  UNL1       -0.2743
     18 C          18.8190   70.4441   -9.3364 C.ar    1  UNL1        0.2626
     19 C          19.9401   70.5900   -8.4831 C.ar    1  UNL1        0.0795
     20 C          19.7383   70.8266   -7.1694 C.ar    1  UNL1        0.0869
     21 O          16.2807   70.8645   -7.0561 O.2     1  UNL1       -0.2464
     22 O          18.9765   70.2292  -10.5253 O.2     1  UNL1       -0.2670
     23 H          16.8055   70.4457   -9.3993 H       1  UNL1        0.1734
     24 O          22.4956   71.6812    0.6357 O.3     1  UNL1       -0.2703
     25 P          21.9724   73.2016    0.5673 P.3     1  UNL1        0.2208
     26 O          22.6290   73.8987   -0.5605 O.2     1  UNL1       -0.5170
     27 O          20.3769   73.2104    0.3472 O.3     1  UNL1       -0.4371
     28 O          22.3270   73.9548    1.9446 O.3     1  UNL1       -0.2858
     29 C          22.8425   72.9663    2.8374 C.3     1  UNL1        0.2704
     30 C          21.7362   72.5170    3.7932 C.3     1  UNL1        0.1967
     31 C          21.2244   73.7337    4.5706 C.3     1  UNL1        0.1715
     32 C          22.4184   74.4282    5.2352 C.3     1  UNL1        0.1694
     33 C          23.4728   74.7345    4.1687 C.3     1  UNL1        0.1761
     34 O          20.6642   71.9387    3.0465 O.3     1  UNL1       -0.3775
     35 O          20.2957   73.3088    5.5702 O.3     1  UNL1       -0.3794
     36 O          22.9755   73.5708    6.2324 O.3     1  UNL1       -0.3794
     37 O          23.9282   73.5178    3.5787 O.3     1  UNL1       -0.3258
     38 H          21.0327   71.1831    2.5688 H       1  UNL1        0.2106
     39 H          19.5703   72.8685    5.1094 H       1  UNL1        0.2105
     40 H          22.2766   73.4008    6.8774 H       1  UNL1        0.2105
     41 C          24.6550   75.4592    4.8162 C.3     1  UNL1        0.1693
     42 O          25.6577   74.5069    5.1752 O.3     1  UNL1       -0.3794
     43 H          26.3835   75.0031    5.5781 H       1  UNL1        0.2105
@<TRIPOS>BOND
     1    15    16   ar
     2    15    20   ar
     3    15     6    1
     4    16    17   ar
     5    16    21    2
     6    17    18   ar
     7    17    23    1
     8    18    19   ar
     9    18    22    2
    10    19    20   ar
    11     6     7    1
    12     6    11    1
    13     7     8    1
    14     7     9    1
    15     8    13    1
    16     9    10    1
    17     9    12    1
    18    10    11    1
    19    10     5    1
    20    12    14    1
    21     5     4    1
    22     4     1    1
    23     1     2    2
    24     1     3    1
    25     1    24    1
    26    24    25    1
    27    25    26    2
    28    25    27    1
    29    25    28    1
    30    28    29    1
    31    29    30    1
    32    29    37    1
    33    30    31    1
    34    30    34    1
    35    31    32    1
    36    31    35    1
    37    32    33    1
    38    32    36    1
    39    33    41    1
    40    33    37    1
    41    41    42    1
    42    34    38    1
    43    35    39    1
    44    36    40    1
    45    42    43    1
@<TRIPOS>MOLECULE
GDU
 43 45 0 0 0
SMALL
GASTEIGER

@<TRIPOS>ATOM
      1 P          22.0418   73.9458   -6.9964 P.3     1  UNL1        0.2189
      2 O          22.8256   72.7088   -7.2082 O.2     1  UNL1       -0.5170
      3 O          23.0436   75.1989   -6.8587 O.3     1  UNL1       -0.4371
      4 O          21.0588   74.1796   -8.2477 O.3     1  UNL1       -0.3112
      5 C          21.2946   73.1099   -9.1646 C.3     1  UNL1        0.1811
      6 C          18.5818   71.1586   -7.8378 C.3     1  UNL1        0.2383
      7 C          17.9966   72.5860   -7.9894 C.3     1  UNL1        0.1895
      8 O          16.5950   72.5359   -8.2652 O.3     1  UNL1       -0.3779
      9 C          18.7816   73.1309   -9.2109 C.3     1  UNL1        0.1713
     10 C          20.0386   72.2435   -9.2742 C.3     1  UNL1        0.1764
     11 O          19.9772   71.3300   -8.1651 O.3     1  UNL1       -0.3308
     12 O          18.0059   72.9969  -10.4035 O.3     1  UNL1       -0.3794
     13 H          16.2940   73.4516   -8.3474 H       1  UNL1        0.2106
     14 H          17.2069   73.5268  -10.2790 H       1  UNL1        0.2105
     15 N          18.4297   70.6797   -6.4629 N.ar    1  UNL1       -0.2551
     16 C          17.2705   70.1178   -6.0769 C.ar    1  UNL1        0.3323
     17 N          17.1059   69.6662   -4.8196 N.ar    1  UNL1       -0.2743
     18 C          18.1023   69.7797   -3.9204 C.ar    1  UNL1        0.2626
     19 C          19.3268   70.3747   -4.3112 C.ar    1  UNL1        0.0795
     20 C          19.4667   70.8153   -5.5796 C.ar    1  UNL1        0.0869
     21 O          16.3629   70.0081   -6.8770 O.2     1  UNL1       -0.2464
     22 O          17.9525   69.3755   -2.7808 O.2     1  UNL1       -0.2670
     23 H          16.2641   69.2595   -4.5595 H       1  UNL1        0.1734
     24 O          21.1725   73.8049   -5.6484 O.3     1  UNL1       -0.2703
     25 P          22.2125   73.8049   -4.4203 P.3     1  UNL1        0.2208
     26 O          23.4804   73.1736   -4.8480 O.2     1  UNL1       -0.5170
     27 O          22.4977   75.3215   -3.9589 O.3     1  UNL1       -0.4371
     28 O          21.5894   72.9786   -3.1879 O.3     1  UNL1       -0.2858
     29 C          22.6271   72.8356   -2.2171 C.3     1  UNL1        0.2704
     30 C          22.8334   71.3522   -1.9070 C.3     1  UNL1        0.1967
     31 C          21.5190   70.7646   -1.3842 C.3     1  UNL1        0.1715
     32 C          21.0362   71.6165   -0.2048 C.3     1  UNL1        0.1694
     33 C          20.9643   73.0807   -0.6450 C.3     1  UNL1        0.1761
     34 O          23.2271   70.6649   -3.0961 O.3     1  UNL1       -0.3775
     35 O          21.7328   69.4192   -0.9520 O.3     1  UNL1       -0.3794
     36 O          21.9496   71.4846    0.8853 O.3     1  UNL1       -0.3794
     37 O          22.2624   73.5326   -1.0281 O.3     1  UNL1       -0.3258
     38 H          24.0527   71.0715   -3.3930 H       1  UNL1        0.2106
     39 H          22.0459   68.9250   -1.7201 H       1  UNL1        0.2105
     40 H          21.9669   70.5487    1.1243 H       1  UNL1        0.2105
     41 C          20.4503   73.9357    0.5155 C.3     1  UNL1        0.1693
     42 O          21.4667   74.8575    0.9135 O.3     1  UNL1       -0.3794
     43 H          21.1034   75.3762    1.6444 H       1  UNL1        0.2105
@<TRIPOS>BOND
     1    15    16   ar
     2    15    20   ar
     3    15     6    1
     4    16    17   ar
     5    16    21    2
     6    17    18   ar
     7    17    23    1
     8    18    19   ar
     9    18    22    2
    10    19    20   ar
    11     6     7    1
    12     6    11    1
    13     7     8    1
    14     7     9    1
    15     8    13    1
    16     9    10    1
    17     9    12    1
    18    10    11    1
    19    10     5    1
    20    12    14    1
    21     5     4    1
    22     4     1    1
    23     1     2    2
    24     1     3    1
    25     1    24    1
    26    24    25    1
    27    25    26    2
    28    25    27    1
    29    25    28    1
    30    28    29    1
    31    29    30    1
    32    29    37    1
    33    30    31    1
    34    30    34    1
    35    31    32    1
    36    31    35    1
    37    32    33    1
    38    32    36    1
    39    33    41    1
    40    33    37    1
    41    41    42    1
    42    34    38    1
    43    35    39    1
    44    36    40    1
    45    42    43    1
@<TRIPOS>MOLECULE
GDU
 43 45 0 0 0
SMALL
GASTEIGER

@<TRIPOS>ATOM
      1 P          22.7010   71.1219   -2.3086 P.3     1  UNL1        0.2189
      2 O          23.6439   71.3189   -3.4317 O.2     1  UNL1       -0.5170
      3 O          22.0653   72.5400   -1.8866 O.3     1  UNL1       -0.4371
      4 O          21.5265   70.1212   -2.7625 O.3     1  UNL1       -0.3112
      5 C          20.8026   70.7783   -3.8040 C.3     1  UNL1        0.1811
      6 C          17.3185   71.1826   -4.5945 C.3     1  UNL1        0.2383
      7 C          17.6199   69.6959   -4.9135 C.3     1  UNL1        0.1895
      8 O          16.4629   68.8839   -4.7004 O.3     1  UNL1       -0.3779
      9 C          18.7285   69.3606   -3.8822 C.3     1  UNL1        0.1713
     10 C          19.3054   70.7343   -3.4929 C.3     1  UNL1        0.1764
     11 O          18.6155   71.7274   -4.2713 O.3     1  UNL1       -0.3308
     12 O          18.1689   68.7044   -2.7427 O.3     1  UNL1       -0.3794
     13 H          16.7162   67.9755   -4.9159 H       1  UNL1        0.2106
     14 H          17.7727   67.8816   -3.0599 H       1  UNL1        0.2105
     15 N          16.7517   71.8584   -5.7628 N.ar    1  UNL1       -0.2551
     16 C          17.0985   71.4575   -6.9986 C.ar    1  UNL1        0.3323
     17 N          16.5891   72.0596   -8.0894 N.ar    1  UNL1       -0.2743
     18 C          15.7264   73.0857   -7.9592 C.ar    1  UNL1        0.2626
     19 C          15.3565   73.5226   -6.6636 C.ar    1  UNL1        0.0795
     20 C          15.8790   72.8983   -5.5867 C.ar    1  UNL1        0.0869
     21 O          17.8753   70.5328   -7.1319 O.2     1  UNL1       -0.2464
     22 O          15.2685   73.6345   -8.9459 O.2     1  UNL1       -0.2670
     23 H          16.8472   71.7543   -8.9737 H       1  UNL1        0.1734
     24 O          23.4879   70.4932   -1.0524 O.3     1  UNL1       -0.2703
     25 P          22.4900   70.5673    0.2080 P.3     1  UNL1        0.2208
     26 O          21.1417   70.1178   -0.2035 O.2     1  UNL1       -0.5170
     27 O          23.0381   69.6118    1.3830 O.3     1  UNL1       -0.4371
     28 O          22.4113   72.0830    0.7432 O.3     1  UNL1       -0.2858
     29 C          21.2150   72.1885    1.5162 C.3     1  UNL1        0.2704
     30 C          20.4649   73.4619    1.1222 C.3     1  UNL1        0.1967
     31 C          21.3737   74.6710    1.3642 C.3     1  UNL1        0.1715
     32 C          21.8701   74.6285    2.8139 C.3     1  UNL1        0.1694
     33 C          22.5159   73.2662    3.0791 C.3     1  UNL1        0.1761
     34 O          20.1078   73.3988   -0.2597 O.3     1  UNL1       -0.3775
     35 O          20.6389   75.8763    1.1410 O.3     1  UNL1       -0.3794
     36 O          20.7684   74.8214    3.7020 O.3     1  UNL1       -0.3794
     37 O          21.5487   72.2323    2.9016 O.3     1  UNL1       -0.3258
     38 H          19.5433   72.6211   -0.3668 H       1  UNL1        0.2106
     39 H          20.3372   75.8543    0.2241 H       1  UNL1        0.2105
     40 H          20.3905   75.6862    3.4955 H       1  UNL1        0.2105
     41 C          23.0458   73.2257    4.5142 C.3     1  UNL1        0.1693
     42 O          22.0769   72.6058    5.3615 O.3     1  UNL1       -0.3794
     43 H          22.4489   72.5995    6.2542 H       1  UNL1        0.2105
@<TRIPOS>BOND
     1    15    16   ar
     2    15    20   ar
     3    15     6    1
     4    16    17   ar
     5    16    21    2
     6    17    18   ar
     7    17    23    1
     8    18    19   ar
     9    18    22    2
    10    19    20   ar
    11     6     7    1
    12     6    11    1
    13     7     8    1
    14     7     9    1
    15     8    13    1
    16     9    10    1
    17     9    12    1
    18    10    11    1
    19    10     5    1
    20    12    14    1
    21     5     4    1
    22     4     1    1
    23     1     2    2
    24     1     3    1
    25     1    24    1
    26    24    25    1
    27    25    26    2
    28    25    27    1
    29    25    28    1
    30    28    29    1
    31    29    30    1
    32    29    37    1
    33    30    31    1
    34    30    34    1
    35    31    32    1
    36    31    35    1
    37    32    33    1
    38    32    36    1
    39    33    41    1
    40    33    37    1
    41    41    42    1
    42    34    38    1
    43    35    39    1
    44    36    40    1
    45    42    43    1
@<TRIPOS>MOLECULE
GDU
 43 45 0 0 0
SMALL
GASTEIGER

@<TRIPOS>ATOM
      1 P          22.3866   71.1968   -2.7260 P.3     1  UNL1        0.2189
      2 O          21.9989   69.9133   -3.3519 O.2     1  UNL1       -0.5170
      3 O          23.5344   71.8997   -3.6100 O.3     1  UNL1       -0.4371
      4 O          21.1040   72.1639   -2.6449 O.3     1  UNL1       -0.3112
      5 C          20.4543   72.0968   -3.9153 C.3     1  UNL1        0.1811
      6 C          17.0166   71.9317   -4.9559 C.3     1  UNL1        0.2383
      7 C          17.5830   70.5209   -5.2586 C.3     1  UNL1        0.1895
      8 O          16.5649   69.5252   -5.1339 O.3     1  UNL1       -0.3779
      9 C          18.6557   70.3568   -4.1506 C.3     1  UNL1        0.1713
     10 C          18.9670   71.8005   -3.7143 C.3     1  UNL1        0.1764
     11 O          18.1786   72.6784   -4.5366 O.3     1  UNL1       -0.3308
     12 O          18.1334   69.5984   -3.0579 O.3     1  UNL1       -0.3794
     13 H          16.9805   68.6749   -5.3344 H       1  UNL1        0.2106
     14 H          17.9031   68.7267   -3.4067 H       1  UNL1        0.2105
     15 N          16.4299   72.5235   -6.1593 N.ar    1  UNL1       -0.2551
     16 C          16.8258   72.0988   -7.3723 C.ar    1  UNL1        0.3323
     17 N          16.2996   72.6238   -8.4945 N.ar    1  UNL1       -0.2743
     18 C          15.3700   73.5956   -8.4195 C.ar    1  UNL1        0.2626
     19 C          14.9476   74.0570   -7.1487 C.ar    1  UNL1        0.0795
     20 C          15.4885   73.5101   -6.0393 C.ar    1  UNL1        0.0869
     21 O          17.6632   71.2225   -7.4557 O.2     1  UNL1       -0.2464
     22 O          14.8966   74.0748   -9.4348 O.2     1  UNL1       -0.2670
     23 H          16.5939   72.3023   -9.3615 H       1  UNL1        0.1734
     24 O          22.9473   70.9213   -1.2420 O.3     1  UNL1       -0.2703
     25 P          21.7279   70.3092   -0.3886 P.3     1  UNL1        0.2208
     26 O          20.6801   69.8162   -1.3096 O.2     1  UNL1       -0.5170
     27 O          22.2649   69.0888    0.5149 O.3     1  UNL1       -0.4371
     28 O          21.1123   71.4505    0.5645 O.3     1  UNL1       -0.2858
     29 C          22.1813   72.3397    0.8909 C.3     1  UNL1        0.2704
     30 C          22.4985   72.2283    2.3830 C.3     1  UNL1        0.1967
     31 C          21.2418   72.5752    3.1871 C.3     1  UNL1        0.1715
     32 C          20.7300   73.9458    2.7296 C.3     1  UNL1        0.1694
     33 C          20.5449   73.9261    1.2103 C.3     1  UNL1        0.1761
     34 O          22.9097   70.8942    2.6866 O.3     1  UNL1       -0.3775
     35 O          21.5599   72.6193    4.5798 O.3     1  UNL1       -0.3794
     36 O          21.6771   74.9533    3.0874 O.3     1  UNL1       -0.3794
     37 O          21.7983   73.6763    0.5758 O.3     1  UNL1       -0.3258
     38 H          23.6971   70.7170    2.1542 H       1  UNL1        0.2106
     39 H          21.8876   71.7433    4.8198 H       1  UNL1        0.2105
     40 H          21.7658   74.9252    4.0489 H       1  UNL1        0.2105
     41 C          20.0013   75.2795    0.7469 C.3     1  UNL1        0.1693
     42 O          21.0916   76.1590    0.4663 O.3     1  UNL1       -0.3794
     43 H          20.7072   76.9981    0.1775 H       1  UNL1        0.2105
@<TRIPOS>BOND
     1    15    16   ar
     2    15    20   ar
     3    15     6    1
     4    16    17   ar
     5    16    21    2
     6    17    18   ar
     7    17    23    1
     8    18    19   ar
     9    18    22    2
    10    19    20   ar
    11     6     7    1
    12     6    11    1
    13     7     8    1
    14     7     9    1
    15     8    13    1
    16     9    10    1
    17     9    12    1
    18    10    11    1
    19    10     5    1
    20    12    14    1
    21     5     4    1
    22     4     1    1
    23     1     2    2
    24     1     3    1
    25     1    24    1
    26    24    25    1
    27    25    26    2
    28    25    27    1
    29    25    28    1
    30    28    29    1
    31    29    30    1
    32    29    37    1
    33    30    31    1
    34    30    34    1
    35    31    32    1
    36    31    35    1
    37    32    33    1
    38    32    36    1
    39    33    41    1
    40    33    37    1
    41    41    42    1
    42    34    38    1
    43    35    39    1
    44    36    40    1
    45    42    43    1
@<TRIPOS>MOLECULE
GDU
 43 45 0 0 0
SMALL
GASTEIGER

@<TRIPOS>ATOM
      1 P          23.4883   74.5680   -3.8726 P.3     1  UNL1        0.2189
      2 O          23.9944   74.9455   -2.5343 O.2     1  UNL1       -0.5170
      3 O          21.8880   74.7429   -3.9099 O.3     1  UNL1       -0.4371
      4 O          24.1578   75.5152   -4.9868 O.3     1  UNL1       -0.3112
      5 C          23.2274   76.5669   -5.2491 C.3     1  UNL1        0.1811
      6 C          21.6167   75.1901   -8.1539 C.3     1  UNL1        0.2383
      7 C          20.5776   76.1778   -7.5642 C.3     1  UNL1        0.1895
      8 O          19.7655   76.7404   -8.5972 O.3     1  UNL1       -0.3779
      9 C          21.4852   77.2597   -6.9231 C.3     1  UNL1        0.1713
     10 C          22.8363   76.5471   -6.7279 C.3     1  UNL1        0.1764
     11 O          22.6752   75.1890   -7.1725 O.3     1  UNL1       -0.3308
     12 O          21.6244   78.3790   -7.8006 O.3     1  UNL1       -0.3794
     13 H          19.1431   77.3425   -8.1659 H       1  UNL1        0.2106
     14 H          20.7390   78.7451   -7.9302 H       1  UNL1        0.2105
     15 N          21.0395   73.8519   -8.2914 N.ar    1  UNL1       -0.2551
     16 C          21.7255   72.7815   -7.8535 C.ar    1  UNL1        0.3323
     17 N          21.2158   71.5406   -7.9648 N.ar    1  UNL1       -0.2743
     18 C          20.0077   71.3498   -8.5289 C.ar    1  UNL1        0.2626
     19 C          19.2762   72.4675   -8.9999 C.ar    1  UNL1        0.0795
     20 C          19.8089   73.7014   -8.8720 C.ar    1  UNL1        0.0869
     21 O          22.8163   72.9380   -7.3419 O.2     1  UNL1       -0.2464
     22 O          19.5476   70.2266   -8.6344 O.2     1  UNL1       -0.2670
     23 H          21.7229   70.7799   -7.6394 H       1  UNL1        0.1734
     24 O          23.8661   73.0323   -4.1745 O.3     1  UNL1       -0.2703
     25 P          22.8669   72.1249   -3.2981 P.3     1  UNL1        0.2208
     26 O          21.5392   72.0829   -3.9498 O.2     1  UNL1       -0.5170
     27 O          23.4572   70.6304   -3.1873 O.3     1  UNL1       -0.4371
     28 O          22.7224   72.7541   -1.8239 O.3     1  UNL1       -0.2858
     29 C          21.4373   72.3703   -1.3329 C.3     1  UNL1        0.2704
     30 C          20.8460   73.5132   -0.5063 C.3     1  UNL1        0.1967
     31 C          21.7946   73.8326    0.6532 C.3     1  UNL1        0.1715
     32 C          22.0710   72.5406    1.4304 C.3     1  UNL1        0.1694
     33 C          22.5718   71.4713    0.4563 C.3     1  UNL1        0.1761
     34 O          20.6895   74.6693   -1.3310 O.3     1  UNL1       -0.3775
     35 O          21.1886   74.7956    1.5180 O.3     1  UNL1       -0.3794
     36 O          20.8688   72.0951    2.0598 O.3     1  UNL1       -0.3794
     37 O          21.5688   71.2045   -0.5229 O.3     1  UNL1       -0.3258
     38 H          20.0921   74.4207   -2.0495 H       1  UNL1        0.2106
     39 H          21.0224   75.5841    0.9861 H       1  UNL1        0.2105
     40 H          20.5881   72.8001    2.6577 H       1  UNL1        0.2105
     41 C          22.8836   70.1870    1.2277 C.3     1  UNL1        0.1693
     42 O          22.9370   69.0869    0.3178 O.3     1  UNL1       -0.3794
     43 H          23.1360   68.2991    0.8424 H       1  UNL1        0.2105
@<TRIPOS>BOND
     1    15    16   ar
     2    15    20   ar
     3    15     6    1
     4    16    17   ar
     5    16    21    2
     6    17    18   ar
     7    17    23    1
     8    18    19   ar
     9    18    22    2
    10    19    20   ar
    11     6     7    1
    12     6    11    1
    13     7     8    1
    14     7     9    1
    15     8    13    1
    16     9    10    1
    17     9    12    1
    18    10    11    1
    19    10     5    1
    20    12    14    1
    21     5     4    1
    22     4     1    1
    23     1     2    2
    24     1     3    1
    25     1    24    1
    26    24    25    1
    27    25    26    2
    28    25    27    1
    29    25    28    1
    30    28    29    1
    31    29    30    1
    32    29    37    1
    33    30    31    1
    34    30    34    1
    35    31    32    1
    36    31    35    1
    37    32    33    1
    38    32    36    1
    39    33    41    1
    40    33    37    1
    41    41    42    1
    42    34    38    1
    43    35    39    1
    44    36    40    1
    45    42    43    1
@<TRIPOS>MOLECULE
GDU
 43 45 0 0 0
SMALL
GASTEIGER

@<TRIPOS>ATOM
      1 P          21.9477   70.2799   -0.2106 P.3     1  UNL1        0.2189
      2 O          23.0680   71.0574   -0.7851 O.2     1  UNL1       -0.5170
      3 O          22.4968   68.8652    0.3278 O.3     1  UNL1       -0.4371
      4 O          21.2938   71.1007    1.0083 O.3     1  UNL1       -0.3112
      5 C          22.1193   72.2460    1.2259 C.3     1  UNL1        0.1811
      6 C          23.0750   74.1948    4.0923 C.3     1  UNL1        0.2383
      7 C          21.6656   74.7199    3.7172 C.3     1  UNL1        0.1895
      8 O          20.9636   75.1702    4.8780 O.3     1  UNL1       -0.3779
      9 C          20.9953   73.4544    3.1217 C.3     1  UNL1        0.1713
     10 C          22.1805   72.5557    2.7227 C.3     1  UNL1        0.1764
     11 O          23.3880   73.2766    3.0234 O.3     1  UNL1       -0.3308
     12 O          20.1800   72.8119    4.1037 O.3     1  UNL1       -0.3794
     13 H          20.0989   75.4828    4.5772 H       1  UNL1        0.2106
     14 H          19.4936   73.4446    4.3554 H       1  UNL1        0.2105
     15 N          24.0434   75.2919    4.1300 N.ar    1  UNL1       -0.2551
     16 C          25.2400   75.1054    4.7146 C.ar    1  UNL1        0.3323
     17 N          26.1496   76.0966    4.7596 N.ar    1  UNL1       -0.2743
     18 C          25.8699   77.3010    4.2254 C.ar    1  UNL1        0.2626
     19 C          24.6112   77.5137    3.6115 C.ar    1  UNL1        0.0795
     20 C          23.7190   76.5012    3.5764 C.ar    1  UNL1        0.0869
     21 O          25.5068   74.0242    5.2004 O.2     1  UNL1       -0.2464
     22 O          26.6907   78.2002    4.2699 O.2     1  UNL1       -0.2670
     23 H          27.0098   75.9431    5.1817 H       1  UNL1        0.1734
     24 O          20.8348   70.0251   -1.3459 O.3     1  UNL1       -0.2703
     25 P          21.2364   70.9408   -2.6069 P.3     1  UNL1        0.2208
     26 O          21.1862   72.3670   -2.2164 O.2     1  UNL1       -0.5170
     27 O          22.7281   70.5685   -3.0867 O.3     1  UNL1       -0.4371
     28 O          20.2044   70.6771   -3.8133 O.3     1  UNL1       -0.2858
     29 C          18.9886   71.3446   -3.4729 C.3     1  UNL1        0.2704
     30 C          17.8473   70.3278   -3.4188 C.3     1  UNL1        0.1967
     31 C          17.7245   69.6431   -4.7835 C.3     1  UNL1        0.1715
     32 C          17.5856   70.7228   -5.8627 C.3     1  UNL1        0.1694
     33 C          18.7488   71.7092   -5.7325 C.3     1  UNL1        0.1761
     34 O          18.1245   69.3502   -2.4144 O.3     1  UNL1       -0.3775
     35 O          16.5718   68.7984   -4.7949 O.3     1  UNL1       -0.3794
     36 O          16.3466   71.4123   -5.6920 O.3     1  UNL1       -0.3794
     37 O          18.7042   72.3398   -4.4533 O.3     1  UNL1       -0.3258
     38 H          18.2005   69.8256   -1.5759 H       1  UNL1        0.2106
     39 H          16.6969   68.1448   -4.0953 H       1  UNL1        0.2105
     40 H          15.6454   70.7530   -5.7760 H       1  UNL1        0.2105
     41 C          18.6385   72.7725   -6.8276 C.3     1  UNL1        0.1693
     42 O          17.7942   73.8333   -6.3770 O.3     1  UNL1       -0.3794
     43 H          17.7517   74.4810   -7.0940 H       1  UNL1        0.2105
@<TRIPOS>BOND
     1    15    16   ar
     2    15    20   ar
     3    15     6    1
     4    16    17   ar
     5    16    21    2
     6    17    18   ar
     7    17    23    1
     8    18    19   ar
     9    18    22    2
    10    19    20   ar
    11     6     7    1
    12     6    11    1
    13     7     8    1
    14     7     9    1
    15     8    13    1
    16     9    10    1
    17     9    12    1
    18    10    11    1
    19    10     5    1
    20    12    14    1
    21     5     4    1
    22     4     1    1
    23     1     2    2
    24     1     3    1
    25     1    24    1
    26    24    25    1
    27    25    26    2
    28    25    27    1
    29    25    28    1
    30    28    29    1
    31    29    30    1
    32    29    37    1
    33    30    31    1
    34    30    34    1
    35    31    32    1
    36    31    35    1
    37    32    33    1
    38    32    36    1
    39    33    41    1
    40    33    37    1
    41    41    42    1
    42    34    38    1
    43    35    39    1
    44    36    40    1
    45    42    43    1
@<TRIPOS>MOLECULE
GDU
 43 45 0 0 0
SMALL
GASTEIGER

@<TRIPOS>ATOM
      1 P          20.7417   70.3868   -2.9351 P.3     1  UNL1        0.2189
      2 O          22.1881   70.2782   -3.2277 O.2     1  UNL1       -0.5170
      3 O          19.9159   69.4583   -3.9593 O.3     1  UNL1       -0.4371
      4 O          20.4611   69.9034   -1.4270 O.3     1  UNL1       -0.3112
      5 C          21.5314   70.4058   -0.6255 C.3     1  UNL1        0.1811
      6 C          21.5304   73.4194    1.3355 C.3     1  UNL1        0.2383
      7 C          22.9499   73.3590    0.7157 C.3     1  UNL1        0.1895
      8 O          23.4677   74.6735    0.4982 O.3     1  UNL1       -0.3779
      9 C          22.6855   72.6387   -0.6321 C.3     1  UNL1        0.1713
     10 C          21.3475   71.9092   -0.4103 C.3     1  UNL1        0.1764
     11 O          20.9384   72.1622    0.9449 O.3     1  UNL1       -0.3308
     12 O          22.5749   73.5892   -1.6933 O.3     1  UNL1       -0.3794
     13 H          24.3487   74.5660    0.1134 H       1  UNL1        0.2106
     14 H          23.4218   74.0529   -1.7433 H       1  UNL1        0.2105
     15 N          21.6059   73.5230    2.7938 N.ar    1  UNL1       -0.2551
     16 C          21.9933   72.4587    3.5187 C.ar    1  UNL1        0.3323
     17 N          22.0745   72.5285    4.8605 N.ar    1  UNL1       -0.2743
     18 C          21.7577   73.6694    5.5025 C.ar    1  UNL1        0.2626
     19 C          21.3425   74.7968    4.7522 C.ar    1  UNL1        0.0795
     20 C          21.2739   74.7008    3.4074 C.ar    1  UNL1        0.0869
     21 O          22.2827   71.4229    2.9536 O.2     1  UNL1       -0.2464
     22 O          21.8263   73.7321    6.7173 O.2     1  UNL1       -0.2670
     23 H          22.3601   71.7519    5.3675 H       1  UNL1        0.1734
     24 O          20.2742   71.9182   -3.1049 O.3     1  UNL1       -0.2703
     25 P          20.7928   72.4070   -4.5478 P.3     1  UNL1        0.2208
     26 O          20.5117   73.8506   -4.7097 O.2     1  UNL1       -0.5170
     27 O          22.3793   72.1537   -4.6618 O.3     1  UNL1       -0.4371
     28 O          20.0342   71.5791   -5.7007 O.3     1  UNL1       -0.2858
     29 C          18.9285   72.3770   -6.1255 C.3     1  UNL1        0.2704
     30 C          17.6215   71.6713   -5.7607 C.3     1  UNL1        0.1967
     31 C          17.5899   70.2984   -6.4392 C.3     1  UNL1        0.1715
     32 C          17.8316   70.4882   -7.9409 C.3     1  UNL1        0.1694
     33 C          19.1248   71.2825   -8.1405 C.3     1  UNL1        0.1761
     34 O          17.5449   71.5084   -4.3434 O.3     1  UNL1       -0.3775
     35 O          16.3148   69.6881   -6.2291 O.3     1  UNL1       -0.3794
     36 O          16.7346   71.2000   -8.5152 O.3     1  UNL1       -0.3794
     37 O          18.9975   72.5690   -7.5365 O.3     1  UNL1       -0.3258
     38 H          17.5753   72.3949   -3.9586 H       1  UNL1        0.2106
     39 H          16.2008   69.5997   -5.2744 H       1  UNL1        0.2105
     40 H          15.9437   70.6670   -8.3611 H       1  UNL1        0.2105
     41 C          19.3936   71.4482   -9.6379 C.3     1  UNL1        0.1693
     42 O          18.5213   72.4466  -10.1700 O.3     1  UNL1       -0.3794
     43 H          18.7229   72.5207  -11.1129 H       1  UNL1        0.2105
@<TRIPOS>BOND
     1    15    16   ar
     2    15    20   ar
     3    15     6    1
     4    16    17   ar
     5    16    21    2
     6    17    18   ar
     7    17    23    1
     8    18    19   ar
     9    18    22    2
    10    19    20   ar
    11     6     7    1
    12     6    11    1
    13     7     8    1
    14     7     9    1
    15     8    13    1
    16     9    10    1
    17     9    12    1
    18    10    11    1
    19    10     5    1
    20    12    14    1
    21     5     4    1
    22     4     1    1
    23     1     2    2
    24     1     3    1
    25     1    24    1
    26    24    25    1
    27    25    26    2
    28    25    27    1
    29    25    28    1
    30    28    29    1
    31    29    30    1
    32    29    37    1
    33    30    31    1
    34    30    34    1
    35    31    32    1
    36    31    35    1
    37    32    33    1
    38    32    36    1
    39    33    41    1
    40    33    37    1
    41    41    42    1
    42    34    38    1
    43    35    39    1
    44    36    40    1
    45    42    43    1
@<TRIPOS>MOLECULE
GDU
 43 45 0 0 0
SMALL
GASTEIGER

@<TRIPOS>ATOM
      1 P          20.3280   70.1356   -2.0654 P.3     1  UNL1        0.2189
      2 O          19.1520   69.2643   -2.2833 O.2     1  UNL1       -0.5170
      3 O          21.6400   69.4284   -2.6749 O.3     1  UNL1       -0.4371
      4 O          20.0919   71.5490   -2.7957 O.3     1  UNL1       -0.3112
      5 C          18.7013   71.8515   -2.6720 C.3     1  UNL1        0.1811
      6 C          18.9933   72.8323   -6.1188 C.3     1  UNL1        0.2383
      7 C          18.7494   71.3022   -6.1689 C.3     1  UNL1        0.1895
      8 O          18.0451   70.9368   -7.3579 O.3     1  UNL1       -0.3779
      9 C          17.8700   71.0721   -4.9123 C.3     1  UNL1        0.1713
     10 C          18.1527   72.3005   -4.0276 C.3     1  UNL1        0.1764
     11 O          19.1310   73.1054   -4.7081 O.3     1  UNL1       -0.3308
     12 O          16.4885   71.0144   -5.2731 O.3     1  UNL1       -0.3794
     13 H          17.9263   69.9772   -7.3278 H       1  UNL1        0.2106
     14 H          16.3867   70.2625   -5.8723 H       1  UNL1        0.2105
     15 N          20.2205   73.1848   -6.8346 N.ar    1  UNL1       -0.2551
     16 C          21.4142   72.8322   -6.3257 C.ar    1  UNL1        0.3323
     17 N          22.5573   73.1410   -6.9657 N.ar    1  UNL1       -0.2743
     18 C          22.5236   73.8209   -8.1280 C.ar    1  UNL1        0.2626
     19 C          21.2737   74.2039   -8.6731 C.ar    1  UNL1        0.0795
     20 C          20.1423   73.8777   -8.0127 C.ar    1  UNL1        0.0869
     21 O          21.4605   72.2182   -5.2783 O.2     1  UNL1       -0.2464
     22 O          23.5580   74.1050   -8.7056 O.2     1  UNL1       -0.2670
     23 H          23.4098   72.8748   -6.5860 H       1  UNL1        0.1734
     24 O          20.5330   70.3736   -0.4862 O.3     1  UNL1       -0.2703
     25 P          22.1197   70.3807   -0.2175 P.3     1  UNL1        0.2208
     26 O          22.5600   69.0229    0.1716 O.2     1  UNL1       -0.5170
     27 O          22.8890   70.8298   -1.5595 O.3     1  UNL1       -0.4371
     28 O          22.4600   71.4162    0.9666 O.3     1  UNL1       -0.2858
     29 C          21.2552   72.1268    1.2554 C.3     1  UNL1        0.2704
     30 C          21.3317   73.5275    0.6458 C.3     1  UNL1        0.1967
     31 C          22.5444   74.2594    1.2289 C.3     1  UNL1        0.1715
     32 C          22.4531   74.2178    2.7585 C.3     1  UNL1        0.1694
     33 C          22.2934   72.7634    3.2082 C.3     1  UNL1        0.1761
     34 O          21.4689   73.4253   -0.7726 O.3     1  UNL1       -0.3775
     35 O          22.5461   75.6171    0.7824 O.3     1  UNL1       -0.3794
     36 O          21.3273   74.9830    3.1909 O.3     1  UNL1       -0.3794
     37 O          21.0888   72.2220    2.6681 O.3     1  UNL1       -0.3258
     38 H          20.6893   72.9529   -1.0950 H       1  UNL1        0.2106
     39 H          22.5923   75.5945   -0.1818 H       1  UNL1        0.2105
     40 H          21.4680   75.8873    2.8815 H       1  UNL1        0.2105
     41 C          22.2357   72.7073    4.7364 C.3     1  UNL1        0.1693
     42 O          20.9046   72.9885    5.1726 O.3     1  UNL1       -0.3794
     43 H          20.9111   72.9425    6.1386 H       1  UNL1        0.2105
@<TRIPOS>BOND
     1    15    16   ar
     2    15    20   ar
     3    15     6    1
     4    16    17   ar
     5    16    21    2
     6    17    18   ar
     7    17    23    1
     8    18    19   ar
     9    18    22    2
    10    19    20   ar
    11     6     7    1
    12     6    11    1
    13     7     8    1
    14     7     9    1
    15     8    13    1
    16     9    10    1
    17     9    12    1
    18    10    11    1
    19    10     5    1
    20    12    14    1
    21     5     4    1
    22     4     1    1
    23     1     2    2
    24     1     3    1
    25     1    24    1
    26    24    25    1
    27    25    26    2
    28    25    27    1
    29    25    28    1
    30    28    29    1
    31    29    30    1
    32    29    37    1
    33    30    31    1
    34    30    34    1
    35    31    32    1
    36    31    35    1
    37    32    33    1
    38    32    36    1
    39    33    41    1
    40    33    37    1
    41    41    42    1
    42    34    38    1
    43    35    39    1
    44    36    40    1
    45    42    43    1
@<TRIPOS>MOLECULE
GDU
 43 45 0 0 0
SMALL
GASTEIGER

@<TRIPOS>ATOM
      1 P          22.9144   72.2830   -3.6334 P.3     1  UNL1        0.2189
      2 O          23.3550   70.9194   -3.2643 O.2     1  UNL1       -0.5170
      3 O          21.9989   72.8884   -2.4552 O.3     1  UNL1       -0.4371
      4 O          24.2014   73.2230   -3.8498 O.3     1  UNL1       -0.3112
      5 C          23.7296   74.5711   -3.8749 C.3     1  UNL1        0.1811
      6 C          26.8498   75.8542   -2.6317 C.3     1  UNL1        0.2383
      7 C          26.4067   76.8812   -3.7049 C.3     1  UNL1        0.1895
      8 O          26.8690   78.1934   -3.3766 O.3     1  UNL1       -0.3779
      9 C          24.8606   76.8004   -3.6131 C.3     1  UNL1        0.1713
     10 C          24.5957   75.4336   -2.9550 C.3     1  UNL1        0.1764
     11 O          25.8704   74.8004   -2.7492 O.3     1  UNL1       -0.3308
     12 O          24.3522   77.8610   -2.8015 O.3     1  UNL1       -0.3794
     13 H          26.5616   78.7816   -4.0805 H       1  UNL1        0.2106
     14 H          24.6005   78.6889   -3.2346 H       1  UNL1        0.2105
     15 N          28.1914   75.3464   -2.9235 N.ar    1  UNL1       -0.2551
     16 C          28.4517   74.8027   -4.1256 C.ar    1  UNL1        0.3323
     17 N          29.6777   74.3316   -4.4205 N.ar    1  UNL1       -0.2743
     18 C          30.6660   74.3888   -3.5072 C.ar    1  UNL1        0.2626
     19 C          30.4047   74.9536   -2.2348 C.ar    1  UNL1        0.0795
     20 C          29.1675   75.4225   -1.9667 C.ar    1  UNL1        0.0869
     21 O          27.5704   74.7446   -4.9598 O.2     1  UNL1       -0.2464
     22 O          31.7747   73.9583   -3.7716 O.2     1  UNL1       -0.2670
     23 H          29.8490   73.9463   -5.2946 H       1  UNL1        0.1734
     24 O          22.0597   72.2191   -4.9964 O.3     1  UNL1       -0.2703
     25 P          20.5231   71.9953   -4.5735 P.3     1  UNL1        0.2208
     26 O          20.4530   71.0059   -3.4756 O.2     1  UNL1       -0.5170
     27 O          19.8944   73.3926   -4.0770 O.3     1  UNL1       -0.4371
     28 O          19.6904   71.4533   -5.8396 O.3     1  UNL1       -0.2858
     29 C          18.5132   72.2561   -5.9364 C.3     1  UNL1        0.2704
     30 C          17.2793   71.3787   -5.7200 C.3     1  UNL1        0.1967
     31 C          17.2654   70.2687   -6.7756 C.3     1  UNL1        0.1715
     32 C          17.3739   70.9109   -8.1632 C.3     1  UNL1        0.1694
     33 C          18.6027   71.8230   -8.1949 C.3     1  UNL1        0.1761
     34 O          17.3269   70.7994   -4.4148 O.3     1  UNL1       -0.3775
     35 O          16.0456   69.5302   -6.6797 O.3     1  UNL1       -0.3794
     36 O          16.1977   71.6764   -8.4288 O.3     1  UNL1       -0.3794
     37 O          18.4571   72.8606   -7.2264 O.3     1  UNL1       -0.3258
     38 H          17.3414   71.5325   -3.7846 H       1  UNL1        0.2106
     39 H          16.0144   69.1556   -5.7903 H       1  UNL1        0.2105
     40 H          15.4512   71.0641   -8.3930 H       1  UNL1        0.2105
     41 C          18.7399   72.4428   -9.5874 C.3     1  UNL1        0.1693
     42 O          17.7919   73.5018   -9.7319 O.3     1  UNL1       -0.3794
     43 H          17.9114   73.8652  -10.6201 H       1  UNL1        0.2105
@<TRIPOS>BOND
     1    15    16   ar
     2    15    20   ar
     3    15     6    1
     4    16    17   ar
     5    16    21    2
     6    17    18   ar
     7    17    23    1
     8    18    19   ar
     9    18    22    2
    10    19    20   ar
    11     6     7    1
    12     6    11    1
    13     7     8    1
    14     7     9    1
    15     8    13    1
    16     9    10    1
    17     9    12    1
    18    10    11    1
    19    10     5    1
    20    12    14    1
    21     5     4    1
    22     4     1    1
    23     1     2    2
    24     1     3    1
    25     1    24    1
    26    24    25    1
    27    25    26    2
    28    25    27    1
    29    25    28    1
    30    28    29    1
    31    29    30    1
    32    29    37    1
    33    30    31    1
    34    30    34    1
    35    31    32    1
    36    31    35    1
    37    32    33    1
    38    32    36    1
    39    33    41    1
    40    33    37    1
    41    41    42    1
    42    34    38    1
    43    35    39    1
    44    36    40    1
    45    42    43    1
@<TRIPOS>MOLECULE
GDU
 43 45 0 0 0
SMALL
GASTEIGER

@<TRIPOS>ATOM
      1 P          19.5443   69.9391   -3.0937 P.3     1  UNL1        0.2189
      2 O          19.2410   70.8511   -1.9686 O.2     1  UNL1       -0.5170
      3 O          18.4890   68.7229   -3.0980 O.3     1  UNL1       -0.4371
      4 O          19.4397   70.7452   -4.4816 O.3     1  UNL1       -0.3112
      5 C          18.1454   70.4736   -5.0213 C.3     1  UNL1        0.1811
      6 C          19.0619   72.6642   -7.7210 C.3     1  UNL1        0.2383
      7 C          18.8156   71.2923   -8.3995 C.3     1  UNL1        0.1895
      8 O          18.3329   71.4629   -9.7341 O.3     1  UNL1       -0.3779
      9 C          17.7224   70.6721   -7.4910 C.3     1  UNL1        0.1713
     10 C          17.8539   71.4457   -6.1659 C.3     1  UNL1        0.1764
     11 O          18.9466   72.3690   -6.3128 O.3     1  UNL1       -0.3308
     12 O          16.4278   70.8649   -8.0643 O.3     1  UNL1       -0.3794
     13 H          18.2009   70.5765  -10.0984 H       1  UNL1        0.2106
     14 H          16.4278   70.4078   -8.9162 H       1  UNL1        0.2105
     15 N          20.4013   73.1644   -8.0352 N.ar    1  UNL1       -0.2551
     16 C          21.0196   72.7555   -9.1572 C.ar    1  UNL1        0.3323
     17 N          22.2497   73.2030   -9.4711 N.ar    1  UNL1       -0.2743
     18 C          22.8883   74.0647   -8.6563 C.ar    1  UNL1        0.2626
     19 C          22.2516   74.4995   -7.4681 C.ar    1  UNL1        0.0795
     20 C          21.0160   74.0384   -7.1795 C.ar    1  UNL1        0.0869
     21 O          20.4560   71.9788   -9.9021 O.2     1  UNL1       -0.2464
     22 O          24.0037   74.4666   -8.9372 O.2     1  UNL1       -0.2670
     23 H          22.6793   72.9007  -10.2871 H       1  UNL1        0.1734
     24 O          21.0346   69.3541   -2.9223 O.3     1  UNL1       -0.2703
     25 P          21.9307   70.5357   -2.2972 P.3     1  UNL1        0.2208
     26 O          22.3849   70.1468   -0.9439 O.2     1  UNL1       -0.5170
     27 O          23.2115   70.7933   -3.2392 O.3     1  UNL1       -0.4371
     28 O          21.0551   71.8829   -2.2040 O.3     1  UNL1       -0.2858
     29 C          21.9126   72.8999   -1.6843 C.3     1  UNL1        0.2704
     30 C          21.3633   73.3936   -0.3449 C.3     1  UNL1        0.1967
     31 C          19.9467   73.9366   -0.5566 C.3     1  UNL1        0.1715
     32 C          19.9861   74.9868   -1.6724 C.3     1  UNL1        0.1694
     33 C          20.6385   74.3711   -2.9127 C.3     1  UNL1        0.1761
     34 O          21.3282   72.3107    0.5864 O.3     1  UNL1       -0.3775
     35 O          19.4761   74.5350    0.6529 O.3     1  UNL1       -0.3794
     36 O          20.7446   76.1166   -1.2386 O.3     1  UNL1       -0.3794
     37 O          21.9776   73.9827   -2.6095 O.3     1  UNL1       -0.3258
     38 H          22.2375   71.9965    0.6832 H       1  UNL1        0.2106
     39 H          19.4794   73.8436    1.3269 H       1  UNL1        0.2105
     40 H          20.3015   76.4671   -0.4550 H       1  UNL1        0.2105
     41 C          20.6519   75.4012   -4.0444 C.3     1  UNL1        0.1693
     42 O          21.8946   76.1058   -4.0314 O.3     1  UNL1       -0.3794
     43 H          21.8627   76.7430   -4.7582 H       1  UNL1        0.2105
@<TRIPOS>BOND
     1    15    16   ar
     2    15    20   ar
     3    15     6    1
     4    16    17   ar
     5    16    21    2
     6    17    18   ar
     7    17    23    1
     8    18    19   ar
     9    18    22    2
    10    19    20   ar
    11     6     7    1
    12     6    11    1
    13     7     8    1
    14     7     9    1
    15     8    13    1
    16     9    10    1
    17     9    12    1
    18    10    11    1
    19    10     5    1
    20    12    14    1
    21     5     4    1
    22     4     1    1
    23     1     2    2
    24     1     3    1
    25     1    24    1
    26    24    25    1
    27    25    26    2
    28    25    27    1
    29    25    28    1
    30    28    29    1
    31    29    30    1
    32    29    37    1
    33    30    31    1
    34    30    34    1
    35    31    32    1
    36    31    35    1
    37    32    33    1
    38    32    36    1
    39    33    41    1
    40    33    37    1
    41    41    42    1
    42    34    38    1
    43    35    39    1
    44    36    40    1
    45    42    43    1
@<TRIPOS>MOLECULE
GDU
 43 45 0 0 0
SMALL
GASTEIGER

@<TRIPOS>ATOM
      1 P          23.1170   73.5092   -3.6260 P.3     1  UNL1        0.2189
      2 O          24.1101   74.2876   -4.3989 O.2     1  UNL1       -0.5170
      3 O          23.3839   71.9358   -3.8405 O.3     1  UNL1       -0.4371
      4 O          23.2510   73.8683   -2.0640 O.3     1  UNL1       -0.3112
      5 C          22.1015   73.3235   -1.4141 C.3     1  UNL1        0.1811
      6 C          22.7821   73.1784    2.1134 C.3     1  UNL1        0.2383
      7 C          21.3036   72.7309    1.9836 C.3     1  UNL1        0.1895
      8 O          20.9600   71.8013    3.0136 O.3     1  UNL1       -0.3779
      9 C          21.2928   72.0446    0.5929 C.3     1  UNL1        0.1713
     10 C          22.5273   72.6259   -0.1210 C.3     1  UNL1        0.1764
     11 O          23.1322   73.5779    0.7712 O.3     1  UNL1       -0.3308
     12 O          21.4094   70.6274    0.7343 O.3     1  UNL1       -0.3794
     13 H          20.0322   71.5639    2.8768 H       1  UNL1        0.2106
     14 H          20.6394   70.3319    1.2388 H       1  UNL1        0.2105
     15 N          22.9021   74.3087    3.0358 N.ar    1  UNL1       -0.2551
     16 C          22.2576   75.4585    2.7691 C.ar    1  UNL1        0.3323
     17 N          22.3485   76.5115    3.6025 N.ar    1  UNL1       -0.2743
     18 C          23.0987   76.4328    4.7184 C.ar    1  UNL1        0.2626
     19 C          23.7878   75.2299    5.0092 C.ar    1  UNL1        0.0795
     20 C          23.6760   74.1877    4.1585 C.ar    1  UNL1        0.0869
     21 O          21.5767   75.5443    1.7665 O.2     1  UNL1       -0.2464
     22 O          23.1854   77.3871    5.4710 O.2     1  UNL1       -0.2670
     23 H          21.8732   77.3322    3.3966 H       1  UNL1        0.1734
     24 O          21.6345   73.8751   -4.1369 O.3     1  UNL1       -0.2703
     25 P          21.6765   73.8527   -5.7455 P.3     1  UNL1        0.2208
     26 O          22.0268   75.1993   -6.2484 O.2     1  UNL1       -0.5170
     27 O          22.7834   72.7916   -6.2385 O.3     1  UNL1       -0.4371
     28 O          20.2335   73.4247   -6.3152 O.3     1  UNL1       -0.2858
     29 C          20.4559   72.3880   -7.2720 C.3     1  UNL1        0.2704
     30 C          19.9741   72.8526   -8.6473 C.3     1  UNL1        0.1967
     31 C          18.4846   73.2000   -8.5626 C.3     1  UNL1        0.1715
     32 C          17.7333   71.9975   -7.9802 C.3     1  UNL1        0.1694
     33 C          18.3844   71.5988   -6.6535 C.3     1  UNL1        0.1761
     34 O          20.7142   74.0067   -9.0490 O.3     1  UNL1       -0.3775
     35 O          17.9852   73.4943   -9.8690 O.3     1  UNL1       -0.3794
     36 O          17.7975   70.9042   -8.8971 O.3     1  UNL1       -0.3794
     37 O          19.7413   71.2189   -6.8782 O.3     1  UNL1       -0.3258
     38 H          21.6442   73.7443   -9.0819 H       1  UNL1        0.2106
     39 H          18.4927   74.2462  -10.1997 H       1  UNL1        0.2105
     40 H          17.3825   71.2019   -9.7171 H       1  UNL1        0.2105
     41 C          17.6203   70.4200   -6.0463 C.3     1  UNL1        0.1693
     42 O          16.3721   70.8801   -5.5255 O.3     1  UNL1       -0.3794
     43 H          15.9226   70.1087   -5.1537 H       1  UNL1        0.2105
@<TRIPOS>BOND
     1    15    16   ar
     2    15    20   ar
     3    15     6    1
     4    16    17   ar
     5    16    21    2
     6    17    18   ar
     7    17    23    1
     8    18    19   ar
     9    18    22    2
    10    19    20   ar
    11     6     7    1
    12     6    11    1
    13     7     8    1
    14     7     9    1
    15     8    13    1
    16     9    10    1
    17     9    12    1
    18    10    11    1
    19    10     5    1
    20    12    14    1
    21     5     4    1
    22     4     1    1
    23     1     2    2
    24     1     3    1
    25     1    24    1
    26    24    25    1
    27    25    26    2
    28    25    27    1
    29    25    28    1
    30    28    29    1
    31    29    30    1
    32    29    37    1
    33    30    31    1
    34    30    34    1
    35    31    32    1
    36    31    35    1
    37    32    33    1
    38    32    36    1
    39    33    41    1
    40    33    37    1
    41    41    42    1
    42    34    38    1
    43    35    39    1
    44    36    40    1
    45    42    43    1
@<TRIPOS>MOLECULE
GDU
 43 45 0 0 0
SMALL
GASTEIGER

@<TRIPOS>ATOM
      1 P          22.3569   71.2207   -2.8379 P.3     1  UNL1        0.2189
      2 O          22.1282   69.8008   -3.1857 O.2     1  UNL1       -0.5170
      3 O          23.5388   71.8144   -3.7565 O.3     1  UNL1       -0.4371
      4 O          21.0081   72.0595   -3.0905 O.3     1  UNL1       -0.3112
      5 C          21.3201   73.0635   -4.0576 C.3     1  UNL1        0.1811
      6 C          19.6077   72.6058   -7.1858 C.3     1  UNL1        0.2383
      7 C          20.5736   73.7912   -7.4407 C.3     1  UNL1        0.1895
      8 O          20.9960   73.8203   -8.8060 O.3     1  UNL1       -0.3779
      9 C          21.7602   73.4512   -6.5017 C.3     1  UNL1        0.1713
     10 C          21.1529   72.4879   -5.4650 C.3     1  UNL1        0.1764
     11 O          19.7550   72.3491   -5.7730 O.3     1  UNL1       -0.3308
     12 O          22.8091   72.8133   -7.2331 O.3     1  UNL1       -0.3794
     13 H          21.5915   74.5772   -8.8976 H       1  UNL1        0.2106
     14 H          23.1066   73.4434   -7.9032 H       1  UNL1        0.2105
     15 N          18.2291   72.9842   -7.5003 N.ar    1  UNL1       -0.2551
     16 C          17.7963   72.9298   -8.7723 C.ar    1  UNL1        0.3323
     17 N          16.5324   73.2688   -9.0879 N.ar    1  UNL1       -0.2743
     18 C          15.6793   73.6799   -8.1300 C.ar    1  UNL1        0.2626
     19 C          16.1231   73.7477   -6.7866 C.ar    1  UNL1        0.0795
     20 C          17.3944   73.3979   -6.4972 C.ar    1  UNL1        0.0869
     21 O          18.5541   72.5604   -9.6472 O.2     1  UNL1       -0.2464
     22 O          14.5366   73.9916   -8.4153 O.2     1  UNL1       -0.2670
     23 H          16.2357   73.2194  -10.0105 H       1  UNL1        0.1734
     24 O          22.7770   71.3316   -1.2875 O.3     1  UNL1       -0.2703
     25 P          21.6506   70.5528   -0.4421 P.3     1  UNL1        0.2208
     26 O          20.5168   70.2109   -1.3290 O.2     1  UNL1       -0.5170
     27 O          22.2782   69.2019    0.1707 O.3     1  UNL1       -0.4371
     28 O          21.1313   71.4934    0.7561 O.3     1  UNL1       -0.2858
     29 C          22.1969   72.3907    1.0709 C.3     1  UNL1        0.2704
     30 C          22.6891   72.1175    2.4931 C.3     1  UNL1        0.1967
     31 C          21.5221   72.3004    3.4683 C.3     1  UNL1        0.1715
     32 C          20.9097   73.6878    3.2452 C.3     1  UNL1        0.1694
     33 C          20.5504   73.8410    1.7652 C.3     1  UNL1        0.1761
     34 O          23.1824   70.7795    2.5801 O.3     1  UNL1       -0.3775
     35 O          21.9977   72.1933    4.8117 O.3     1  UNL1       -0.3794
     36 O          21.8535   74.6924    3.6192 O.3     1  UNL1       -0.3794
     37 O          21.7302   73.7340    0.9698 O.3     1  UNL1       -0.3258
     38 H          23.9088   70.7082    1.9460 H       1  UNL1        0.2106
     39 H          22.3837   71.3129    4.9026 H       1  UNL1        0.2105
     40 H          22.0542   74.5537    4.5540 H       1  UNL1        0.2105
     41 C          19.9064   75.2106    1.5377 C.3     1  UNL1        0.1693
     42 O          19.2480   75.6310    2.7338 O.3     1  UNL1       -0.3794
     43 H          18.8572   76.4961    2.5489 H       1  UNL1        0.2105
@<TRIPOS>BOND
     1    15    16   ar
     2    15    20   ar
     3    15     6    1
     4    16    17   ar
     5    16    21    2
     6    17    18   ar
     7    17    23    1
     8    18    19   ar
     9    18    22    2
    10    19    20   ar
    11     6     7    1
    12     6    11    1
    13     7     8    1
    14     7     9    1
    15     8    13    1
    16     9    10    1
    17     9    12    1
    18    10    11    1
    19    10     5    1
    20    12    14    1
    21     5     4    1
    22     4     1    1
    23     1     2    2
    24     1     3    1
    25     1    24    1
    26    24    25    1
    27    25    26    2
    28    25    27    1
    29    25    28    1
    30    28    29    1
    31    29    30    1
    32    29    37    1
    33    30    31    1
    34    30    34    1
    35    31    32    1
    36    31    35    1
    37    32    33    1
    38    32    36    1
    39    33    41    1
    40    33    37    1
    41    41    42    1
    42    34    38    1
    43    35    39    1
    44    36    40    1
    45    42    43    1
@<TRIPOS>MOLECULE
GDU
 43 45 0 0 0
SMALL
GASTEIGER

@<TRIPOS>ATOM
      1 P          21.9584   70.5526   -0.1632 P.3     1  UNL1        0.2189
      2 O          22.9023   71.5394   -0.7332 O.2     1  UNL1       -0.5170
      3 O          22.7700   69.2444    0.3088 O.3     1  UNL1       -0.4371
      4 O          21.2025   71.2001    1.1002 O.3     1  UNL1       -0.3112
      5 C          21.0417   72.5911    0.8179 C.3     1  UNL1        0.1811
      6 C          20.7357   74.4692    3.8685 C.3     1  UNL1        0.2383
      7 C          21.0454   73.0226    4.3316 C.3     1  UNL1        0.1895
      8 O          21.7742   73.0258    5.5612 O.3     1  UNL1       -0.3779
      9 C          21.9237   72.4905    3.1694 C.3     1  UNL1        0.1713
     10 C          21.5814   73.4164    1.9874 C.3     1  UNL1        0.1764
     11 O          20.5750   74.3385    2.4400 O.3     1  UNL1       -0.3308
     12 O          23.3092   72.5880    3.5052 O.3     1  UNL1       -0.3794
     13 H          21.9338   72.1003    5.7932 H       1  UNL1        0.2106
     14 H          23.4480   72.0344    4.2855 H       1  UNL1        0.2105
     15 N          19.5003   74.9568    4.4841 N.ar    1  UNL1       -0.2551
     16 C          19.5593   75.6745    5.6197 C.ar    1  UNL1        0.3323
     17 N          18.4386   76.1376    6.2041 N.ar    1  UNL1       -0.2743
     18 C          17.2327   75.8793    5.6624 C.ar    1  UNL1        0.2626
     19 C          17.1549   75.1197    4.4694 C.ar    1  UNL1        0.0795
     20 C          18.2947   74.6710    3.9019 C.ar    1  UNL1        0.0869
     21 O          20.6399   75.9159    6.1198 O.2     1  UNL1       -0.2464
     22 O          16.2174   76.2940    6.1932 O.2     1  UNL1       -0.2670
     23 H          18.5001   76.6576    7.0211 H       1  UNL1        0.1734
     24 O          20.8774   70.1372   -1.2819 O.3     1  UNL1       -0.2703
     25 P          21.3585   70.8031   -2.6658 P.3     1  UNL1        0.2208
     26 O          21.5186   72.2624   -2.4813 O.2     1  UNL1       -0.5170
     27 O          22.7676   70.1609   -3.1087 O.3     1  UNL1       -0.4371
     28 O          20.2599   70.5229   -3.8079 O.3     1  UNL1       -0.2858
     29 C          19.0696   71.2079   -3.4158 C.3     1  UNL1        0.2704
     30 C          17.9041   70.2185   -3.3707 C.3     1  UNL1        0.1967
     31 C          17.7330   69.5863   -4.7554 C.3     1  UNL1        0.1715
     32 C          17.5976   70.7069   -5.7925 C.3     1  UNL1        0.1694
     33 C          18.7884   71.6589   -5.6550 C.3     1  UNL1        0.1761
     34 O          18.1786   69.1991   -2.4081 O.3     1  UNL1       -0.3775
     35 O          16.5590   68.7715   -4.7694 O.3     1  UNL1       -0.3794
     36 O          16.3809   71.4206   -5.5686 O.3     1  UNL1       -0.3794
     37 O          18.7889   72.2443   -4.3537 O.3     1  UNL1       -0.3258
     38 H          18.2857   69.6422   -1.5554 H       1  UNL1        0.2106
     39 H          16.6829   68.0904   -4.0963 H       1  UNL1        0.2105
     40 H          15.6613   70.7824   -5.6592 H       1  UNL1        0.2105
     41 C          18.6808   72.7630   -6.7091 C.3     1  UNL1        0.1693
     42 O          17.8934   73.8377   -6.1934 O.3     1  UNL1       -0.3794
     43 H          17.8509   74.5111   -6.8862 H       1  UNL1        0.2105
@<TRIPOS>BOND
     1    15    16   ar
     2    15    20   ar
     3    15     6    1
     4    16    17   ar
     5    16    21    2
     6    17    18   ar
     7    17    23    1
     8    18    19   ar
     9    18    22    2
    10    19    20   ar
    11     6     7    1
    12     6    11    1
    13     7     8    1
    14     7     9    1
    15     8    13    1
    16     9    10    1
    17     9    12    1
    18    10    11    1
    19    10     5    1
    20    12    14    1
    21     5     4    1
    22     4     1    1
    23     1     2    2
    24     1     3    1
    25     1    24    1
    26    24    25    1
    27    25    26    2
    28    25    27    1
    29    25    28    1
    30    28    29    1
    31    29    30    1
    32    29    37    1
    33    30    31    1
    34    30    34    1
    35    31    32    1
    36    31    35    1
    37    32    33    1
    38    32    36    1
    39    33    41    1
    40    33    37    1
    41    41    42    1
    42    34    38    1
    43    35    39    1
    44    36    40    1
    45    42    43    1
@<TRIPOS>MOLECULE
GDU
 43 45 0 0 0
SMALL
GASTEIGER

@<TRIPOS>ATOM
      1 P          19.9460   73.2611   -3.5181 P.3     1  UNL1        0.2189
      2 O          18.4784   73.3848   -3.3758 O.2     1  UNL1       -0.5170
      3 O          20.4296   74.0772   -4.8193 O.3     1  UNL1       -0.4371
      4 O          20.6649   73.8612   -2.2105 O.3     1  UNL1       -0.3112
      5 C          20.5102   72.8926   -1.1720 C.3     1  UNL1        0.1811
      6 C          22.8461   72.4343    1.5226 C.3     1  UNL1        0.2383
      7 C          22.2504   71.0239    1.2800 C.3     1  UNL1        0.1895
      8 O          23.2053   70.0066    1.5908 O.3     1  UNL1       -0.3779
      9 C          21.9508   71.0551   -0.2414 C.3     1  UNL1        0.1713
     10 C          21.8792   72.5561   -0.5780 C.3     1  UNL1        0.1764
     11 O          22.0713   73.2822    0.6484 O.3     1  UNL1       -0.3308
     12 O          23.0036   70.4216   -0.9710 O.3     1  UNL1       -0.3794
     13 H          22.7741   69.1577    1.4196 H       1  UNL1        0.2106
     14 H          23.0364   69.5022   -0.6739 H       1  UNL1        0.2105
     15 N          22.6718   72.8369    2.9192 N.ar    1  UNL1       -0.2551
     16 C          21.5144   72.5714    3.5503 C.ar    1  UNL1        0.3323
     17 N          21.3298   72.9277    4.8351 N.ar    1  UNL1       -0.2743
     18 C          22.3037   73.5684    5.5097 C.ar    1  UNL1        0.2626
     19 C          23.5260   73.8598    4.8561 C.ar    1  UNL1        0.0795
     20 C          23.6864   73.4875    3.5684 C.ar    1  UNL1        0.0869
     21 O          20.6268   71.9936    2.9548 O.2     1  UNL1       -0.2464
     22 O          22.1358   73.8955    6.6713 O.2     1  UNL1       -0.2670
     23 H          20.4896   72.7242    5.2762 H       1  UNL1        0.1734
     24 O          20.3392   71.7085   -3.6834 O.3     1  UNL1       -0.2703
     25 P          19.1003   70.9889   -4.4166 P.3     1  UNL1        0.2208
     26 O          19.5442   69.6940   -4.9779 O.2     1  UNL1       -0.5170
     27 O          17.9202   70.7347   -3.3503 O.3     1  UNL1       -0.4371
     28 O          18.5565   71.9310   -5.6027 O.3     1  UNL1       -0.2858
     29 C          17.5998   71.1647   -6.3356 C.3     1  UNL1        0.2704
     30 C          17.9747   71.1662   -7.8185 C.3     1  UNL1        0.1967
     31 C          18.0099   72.6123   -8.3224 C.3     1  UNL1        0.1715
     32 C          16.6718   73.2808   -7.9872 C.3     1  UNL1        0.1694
     33 C          16.3966   73.1205   -6.4900 C.3     1  UNL1        0.1761
     34 O          19.2607   70.5673   -7.9876 O.3     1  UNL1       -0.3775
     35 O          18.2136   72.6229   -9.7370 O.3     1  UNL1       -0.3794
     36 O          15.6269   72.6618   -8.7390 O.3     1  UNL1       -0.3794
     37 O          16.3044   71.7346   -6.1632 O.3     1  UNL1       -0.3258
     38 H          19.1939   69.6632   -7.6515 H       1  UNL1        0.2106
     39 H          19.0575   72.1836   -9.9015 H       1  UNL1        0.2105
     40 H          15.8447   72.7822   -9.6725 H       1  UNL1        0.2105
     41 C          15.0788   73.8145   -6.1383 C.3     1  UNL1        0.1693
     42 O          15.2624   75.2308   -6.1766 O.3     1  UNL1       -0.3794
     43 H          14.4109   75.6296   -5.9504 H       1  UNL1        0.2105
@<TRIPOS>BOND
     1    15    16   ar
     2    15    20   ar
     3    15     6    1
     4    16    17   ar
     5    16    21    2
     6    17    18   ar
     7    17    23    1
     8    18    19   ar
     9    18    22    2
    10    19    20   ar
    11     6     7    1
    12     6    11    1
    13     7     8    1
    14     7     9    1
    15     8    13    1
    16     9    10    1
    17     9    12    1
    18    10    11    1
    19    10     5    1
    20    12    14    1
    21     5     4    1
    22     4     1    1
    23     1     2    2
    24     1     3    1
    25     1    24    1
    26    24    25    1
    27    25    26    2
    28    25    27    1
    29    25    28    1
    30    28    29    1
    31    29    30    1
    32    29    37    1
    33    30    31    1
    34    30    34    1
    35    31    32    1
    36    31    35    1
    37    32    33    1
    38    32    36    1
    39    33    41    1
    40    33    37    1
    41    41    42    1
    42    34    38    1
    43    35    39    1
    44    36    40    1
    45    42    43    1
@<TRIPOS>MOLECULE
GDU
 43 45 0 0 0
SMALL
GASTEIGER

@<TRIPOS>ATOM
      1 P          19.4638   70.1958   -3.2356 P.3     1  UNL1        0.2189
      2 O          19.0731   71.4536   -2.5612 O.2     1  UNL1       -0.5170
      3 O          18.4147   69.0348   -2.8553 O.3     1  UNL1       -0.4371
      4 O          19.4639   70.4181   -4.8285 O.3     1  UNL1       -0.3112
      5 C          18.1100   70.2870   -5.2648 C.3     1  UNL1        0.1811
      6 C          19.0025   72.7427   -7.7346 C.3     1  UNL1        0.2383
      7 C          18.8104   71.4324   -8.5404 C.3     1  UNL1        0.1895
      8 O          18.3447   71.7107   -9.8629 O.3     1  UNL1       -0.3779
      9 C          17.7221   70.6993   -7.7137 C.3     1  UNL1        0.1713
     10 C          17.8074   71.3512   -6.3211 C.3     1  UNL1        0.1764
     11 O          18.8732   72.3160   -6.3618 O.3     1  UNL1       -0.3308
     12 O          16.4318   70.9057   -8.2919 O.3     1  UNL1       -0.3794
     13 H          18.2465   70.8580  -10.3091 H       1  UNL1        0.2106
     14 H          16.4602   70.5291   -9.1819 H       1  UNL1        0.2105
     15 N          20.3307   73.3089   -7.9758 N.ar    1  UNL1       -0.2551
     16 C          21.4214   72.5355   -7.8329 C.ar    1  UNL1        0.3323
     17 N          22.6538   73.0306   -8.0520 N.ar    1  UNL1       -0.2743
     18 C          22.8152   74.3189   -8.4103 C.ar    1  UNL1        0.2626
     19 C          21.6757   75.1470   -8.5590 C.ar    1  UNL1        0.0795
     20 C          20.4511   74.6238   -8.3373 C.ar    1  UNL1        0.0869
     21 O          21.2915   71.3713   -7.5106 O.2     1  UNL1       -0.2464
     22 O          23.9306   74.7692   -8.6042 O.2     1  UNL1       -0.2670
     23 H          23.4296   72.4569   -7.9483 H       1  UNL1        0.1734
     24 O          20.9379   69.7645   -2.7525 O.3     1  UNL1       -0.2703
     25 P          21.9032   71.0245   -3.0178 P.3     1  UNL1        0.2208
     26 O          23.2748   70.5448   -3.2966 O.2     1  UNL1       -0.5170
     27 O          21.3597   71.8595   -4.2834 O.3     1  UNL1       -0.4371
     28 O          21.9192   71.9728   -1.7177 O.3     1  UNL1       -0.2858
     29 C          21.7381   73.3123   -2.1788 C.3     1  UNL1        0.2704
     30 C          23.0845   74.0380   -2.1765 C.3     1  UNL1        0.1967
     31 C          23.6539   74.0279   -0.7545 C.3     1  UNL1        0.1715
     32 C          22.6010   74.6036    0.1991 C.3     1  UNL1        0.1694
     33 C          21.2909   73.8331    0.0179 C.3     1  UNL1        0.1761
     34 O          23.9884   73.3726   -3.0604 O.3     1  UNL1       -0.3775
     35 O          24.8377   74.8272   -0.7056 O.3     1  UNL1       -0.3794
     36 O          22.3930   75.9854   -0.0966 O.3     1  UNL1       -0.3794
     37 O          20.8222   73.9887   -1.3208 O.3     1  UNL1       -0.3258
     38 H          23.5871   73.3966   -3.9398 H       1  UNL1        0.2106
     39 H          25.4649   74.4366   -1.3272 H       1  UNL1        0.2105
     40 H          23.2428   76.4286    0.0248 H       1  UNL1        0.2105
     41 C          20.2421   74.3777    0.9903 C.3     1  UNL1        0.1693
     42 O          19.5189   75.4388    0.3642 O.3     1  UNL1       -0.3794
     43 H          18.8694   75.7529    1.0083 H       1  UNL1        0.2105
@<TRIPOS>BOND
     1    15    16   ar
     2    15    20   ar
     3    15     6    1
     4    16    17   ar
     5    16    21    2
     6    17    18   ar
     7    17    23    1
     8    18    19   ar
     9    18    22    2
    10    19    20   ar
    11     6     7    1
    12     6    11    1
    13     7     8    1
    14     7     9    1
    15     8    13    1
    16     9    10    1
    17     9    12    1
    18    10    11    1
    19    10     5    1
    20    12    14    1
    21     5     4    1
    22     4     1    1
    23     1     2    2
    24     1     3    1
    25     1    24    1
    26    24    25    1
    27    25    26    2
    28    25    27    1
    29    25    28    1
    30    28    29    1
    31    29    30    1
    32    29    37    1
    33    30    31    1
    34    30    34    1
    35    31    32    1
    36    31    35    1
    37    32    33    1
    38    32    36    1
    39    33    41    1
    40    33    37    1
    41    41    42    1
    42    34    38    1
    43    35    39    1
    44    36    40    1
    45    42    43    1
@<TRIPOS>MOLECULE
GDU
 43 45 0 0 0
SMALL
GASTEIGER

@<TRIPOS>ATOM
      1 P          19.5503   69.8950   -3.2443 P.3     1  UNL1        0.2189
      2 O          19.1913   71.1546   -2.5557 O.2     1  UNL1       -0.5170
      3 O          18.5950   68.7079   -2.7237 O.3     1  UNL1       -0.4371
      4 O          19.3626   70.0781   -4.8311 O.3     1  UNL1       -0.3112
      5 C          17.9573   70.1565   -5.0752 C.3     1  UNL1        0.1811
      6 C          18.9094   72.5923   -7.5425 C.3     1  UNL1        0.2383
      7 C          18.6942   71.2858   -8.3485 C.3     1  UNL1        0.1895
      8 O          18.2398   71.5726   -9.6730 O.3     1  UNL1       -0.3779
      9 C          17.5880   70.5751   -7.5259 C.3     1  UNL1        0.1713
     10 C          17.6806   71.2260   -6.1334 C.3     1  UNL1        0.1764
     11 O          18.7657   72.1691   -6.1700 O.3     1  UNL1       -0.3308
     12 O          16.3045   70.8072   -8.1097 O.3     1  UNL1       -0.3794
     13 H          18.1263   70.7218  -10.1192 H       1  UNL1        0.2106
     14 H          16.3290   70.4296   -8.9993 H       1  UNL1        0.2105
     15 N          20.2497   73.1316   -7.7784 N.ar    1  UNL1       -0.2551
     16 C          20.9223   72.7840   -8.8897 C.ar    1  UNL1        0.3323
     17 N          22.1545   73.2685   -9.1322 N.ar    1  UNL1       -0.2743
     18 C          22.7405   74.1061   -8.2552 C.ar    1  UNL1        0.2626
     19 C          22.0463   74.4764   -7.0775 C.ar    1  UNL1        0.0795
     20 C          20.8099   73.9794   -6.8610 C.ar    1  UNL1        0.0869
     21 O          20.4064   72.0296   -9.6903 O.2     1  UNL1       -0.2464
     22 O          23.8578   74.5414   -8.4715 O.2     1  UNL1       -0.2670
     23 H          22.6237   73.0103   -9.9415 H       1  UNL1        0.1734
     24 O          21.0846   69.5273   -2.9229 O.3     1  UNL1       -0.2703
     25 P          21.8998   70.9145   -2.8900 P.3     1  UNL1        0.2208
     26 O          23.3506   70.6359   -2.9721 O.2     1  UNL1       -0.5170
     27 O          21.4574   71.8265   -4.1417 O.3     1  UNL1       -0.4371
     28 O          21.5788   71.6945   -1.5194 O.3     1  UNL1       -0.2858
     29 C          22.7292   71.5567   -0.6843 C.3     1  UNL1        0.2704
     30 C          22.2987   71.0646    0.6983 C.3     1  UNL1        0.1967
     31 C          21.3110   72.0691    1.2998 C.3     1  UNL1        0.1715
     32 C          21.9510   73.4617    1.2732 C.3     1  UNL1        0.1694
     33 C          22.4064   73.7729   -0.1546 C.3     1  UNL1        0.1761
     34 O          21.6705   69.7871    0.5775 O.3     1  UNL1       -0.3775
     35 O          21.0129   71.7007    2.6481 O.3     1  UNL1       -0.3794
     36 O          23.0745   73.4881    2.1547 O.3     1  UNL1       -0.3794
     37 O          23.3832   72.8182   -0.5672 O.3     1  UNL1       -0.3258
     38 H          22.3246   69.1902    0.1892 H       1  UNL1        0.2106
     39 H          20.6248   70.8171    2.6176 H       1  UNL1        0.2105
     40 H          22.7422   73.2816    3.0380 H       1  UNL1        0.2105
     41 C          23.0163   75.1758   -0.1992 C.3     1  UNL1        0.1693
     42 O          24.4413   75.0752   -0.1931 O.3     1  UNL1       -0.3794
     43 H          24.7858   75.9784   -0.2227 H       1  UNL1        0.2105
@<TRIPOS>BOND
     1    15    16   ar
     2    15    20   ar
     3    15     6    1
     4    16    17   ar
     5    16    21    2
     6    17    18   ar
     7    17    23    1
     8    18    19   ar
     9    18    22    2
    10    19    20   ar
    11     6     7    1
    12     6    11    1
    13     7     8    1
    14     7     9    1
    15     8    13    1
    16     9    10    1
    17     9    12    1
    18    10    11    1
    19    10     5    1
    20    12    14    1
    21     5     4    1
    22     4     1    1
    23     1     2    2
    24     1     3    1
    25     1    24    1
    26    24    25    1
    27    25    26    2
    28    25    27    1
    29    25    28    1
    30    28    29    1
    31    29    30    1
    32    29    37    1
    33    30    31    1
    34    30    34    1
    35    31    32    1
    36    31    35    1
    37    32    33    1
    38    32    36    1
    39    33    41    1
    40    33    37    1
    41    41    42    1
    42    34    38    1
    43    35    39    1
    44    36    40    1
    45    42    43    1
