@<TRIPOS>MOLECULE
UD1
 46 48 0 0 0
SMALL
GASTEIGER

@<TRIPOS>ATOM
      1 P          21.6490   70.8052   -2.4988 P.3     1  UNL1        0.2189
      2 O          23.1168   70.9111   -2.6508 O.2     1  UNL1       -0.5170
      3 O          21.2032   69.2657   -2.6534 O.3     1  UNL1       -0.4371
      4 O          20.9272   71.6885   -3.6353 O.3     1  UNL1       -0.3112
      5 C          19.8759   72.4110   -2.9924 C.3     1  UNL1        0.1811
      6 C          17.8861   71.3161   -5.7797 C.3     1  UNL1        0.2383
      7 C          17.9540   70.0837   -4.8434 C.3     1  UNL1        0.1895
      8 O          16.7707   69.2919   -4.9540 O.3     1  UNL1       -0.3779
      9 C          18.0494   70.7435   -3.4431 C.3     1  UNL1        0.1713
     10 C          18.5608   72.1676   -3.7343 C.3     1  UNL1        0.1764
     11 O          18.7742   72.2657   -5.1528 O.3     1  UNL1       -0.3308
     12 O          16.7635   70.7843   -2.8206 O.3     1  UNL1       -0.3794
     13 H          16.8763   68.5444   -4.3494 H       1  UNL1        0.2106
     14 H          16.4727   69.8680   -2.7200 H       1  UNL1        0.2105
     15 N          18.3590   70.9753   -7.1220 N.ar    1  UNL1       -0.2551
     16 C          17.4744   70.6196   -8.0697 C.ar    1  UNL1        0.3323
     17 N          17.8807   70.3048   -9.3140 N.ar    1  UNL1       -0.2743
     18 C          19.1915   70.3328   -9.6282 C.ar    1  UNL1        0.2626
     19 C          20.1341   70.6997   -8.6384 C.ar    1  UNL1        0.0795
     20 C          19.6988   71.0159   -7.3999 C.ar    1  UNL1        0.0869
     21 O          16.2887   70.5897   -7.8017 O.2     1  UNL1       -0.2464
     22 O          19.5604   70.0438  -10.7515 O.2     1  UNL1       -0.2670
     23 H          17.2284   70.0551   -9.9865 H       1  UNL1        0.1734
     24 O          21.2195   71.3459   -1.0456 O.3     1  UNL1       -0.2703
     25 P          22.3099   70.7893   -0.0014 P.3     1  UNL1        0.2208
     26 O          23.5130   70.3411   -0.7367 O.2     1  UNL1       -0.5170
     27 O          21.6879   69.5488    0.8150 O.3     1  UNL1       -0.4371
     28 O          22.7148   71.9584    1.0280 O.3     1  UNL1       -0.2865
     29 C          21.5314   72.7188    1.2780 C.3     1  UNL1        0.2611
     30 C          21.7571   74.1650    0.8337 C.3     1  UNL1        0.1582
     31 C          22.9470   74.7466    1.6054 C.3     1  UNL1        0.1625
     32 C          22.6983   74.5566    3.1054 C.3     1  UNL1        0.1686
     33 C          22.4046   73.0800    3.3788 C.3     1  UNL1        0.1760
     34 O          23.0748   76.1387    1.3104 O.3     1  UNL1       -0.3801
     35 O          23.8584   74.9579    3.8368 O.3     1  UNL1       -0.3794
     36 O          21.2306   72.6830    2.6714 O.3     1  UNL1       -0.3263
     37 H          23.8333   76.4628    1.8152 H       1  UNL1        0.2105
     38 H          23.6593   74.8214    4.7739 H       1  UNL1        0.2105
     39 C          23.3146   74.2416   -1.0379 C.2     1  UNL1        0.2231
     40 C          23.6060   74.2757   -2.5165 C.3     1  UNL1        0.0946
     41 N          22.0407   74.1977   -0.6026 N.am    1  UNL1       -0.2994
     42 O          24.2272   74.2543   -0.2397 O.2     1  UNL1       -0.2751
     43 H          21.3102   74.1878   -1.2412 H       1  UNL1        0.1496
     44 C          22.1868   72.8738    4.8792 C.3     1  UNL1        0.1693
     45 O          20.7930   72.9767    5.1772 O.3     1  UNL1       -0.3794
     46 H          20.6998   72.8414    6.1298 H       1  UNL1        0.2105
@<TRIPOS>BOND
     1    29    30    1
     2    29    28    1
     3    29    36    1
     4    30    31    1
     5    30    41    1
     6    31    32    1
     7    31    34    1
     8    32    33    1
     9    32    35    1
    10    33    44    1
    11    33    36    1
    12    44    45    1
    13    39    40    1
    14    39    41   am
    15    39    42    2
    16    41    43    1
    17    28    25    1
    18    34    37    1
    19    35    38    1
    20    45    46    1
    21    15    16   ar
    22    15    20   ar
    23    15     6    1
    24    16    17   ar
    25    16    21    2
    26    17    18   ar
    27    17    23    1
    28    18    19   ar
    29    18    22    2
    30    19    20   ar
    31     6     7    1
    32     6    11    1
    33     7     8    1
    34     7     9    1
    35     8    13    1
    36     9    10    1
    37     9    12    1
    38    10    11    1
    39    10     5    1
    40    12    14    1
    41     5     4    1
    42     4     1    1
    43     1     2    2
    44     1     3    1
    45     1    24    1
    46    24    25    1
    47    25    26    2
    48    25    27    1
@<TRIPOS>MOLECULE
UD1
 46 48 0 0 0
SMALL
GASTEIGER

@<TRIPOS>ATOM
      1 P          22.4493   71.4850   -2.4814 P.3     1  UNL1        0.2189
      2 O          23.4398   70.6418   -3.1861 O.2     1  UNL1       -0.5170
      3 O          22.0499   70.7904   -1.0848 O.3     1  UNL1       -0.4371
      4 O          21.1336   71.6443   -3.3960 O.3     1  UNL1       -0.3112
      5 C          20.1450   72.2877   -2.5904 C.3     1  UNL1        0.1811
      6 C          17.9220   71.4056   -5.2751 C.3     1  UNL1        0.2383
      7 C          17.9853   70.1354   -4.3903 C.3     1  UNL1        0.1895
      8 O          16.7570   69.4095   -4.4495 O.3     1  UNL1       -0.3779
      9 C          18.2069   70.7339   -2.9768 C.3     1  UNL1        0.1713
     10 C          18.7731   72.1406   -3.2504 C.3     1  UNL1        0.1764
     11 O          18.8984   72.2836   -4.6756 O.3     1  UNL1       -0.3308
     12 O          16.9684   70.8152   -2.2681 O.3     1  UNL1       -0.3794
     13 H          16.8619   68.6344   -3.8805 H       1  UNL1        0.2106
     14 H          16.6365   69.9116   -2.1812 H       1  UNL1        0.2105
     15 N          18.2875   71.0944   -6.6575 N.ar    1  UNL1       -0.2551
     16 C          17.3276   70.7890   -7.5478 C.ar    1  UNL1        0.3323
     17 N          17.6344   70.5024   -8.8269 N.ar    1  UNL1       -0.2743
     18 C          18.9194   70.5084   -9.2351 C.ar    1  UNL1        0.2626
     19 C          19.9404   70.8223   -8.3068 C.ar    1  UNL1        0.0795
     20 C          19.6042   71.1111   -7.0313 C.ar    1  UNL1        0.0869
     21 O          16.1640   70.7795   -7.1948 O.2     1  UNL1       -0.2464
     22 O          19.1983   70.2447  -10.3901 O.2     1  UNL1       -0.2670
     23 H          16.9288   70.2889   -9.4568 H       1  UNL1        0.1734
     24 O          23.0844   72.9359   -2.1980 O.3     1  UNL1       -0.2703
     25 P          23.4862   73.5549   -3.6280 P.3     1  UNL1        0.2208
     26 O          23.4589   72.4879   -4.6525 O.2     1  UNL1       -0.5170
     27 O          24.9673   74.1808   -3.5455 O.3     1  UNL1       -0.4371
     28 O          22.4387   74.7096   -4.0278 O.3     1  UNL1       -0.2865
     29 C          23.1563   75.6685   -4.8067 C.3     1  UNL1        0.2611
     30 C          22.3427   76.9612   -4.8910 C.3     1  UNL1        0.1582
     31 C          20.9819   76.6564   -5.5274 C.3     1  UNL1        0.1625
     32 C          21.2145   75.9440   -6.8640 C.3     1  UNL1        0.1686
     33 C          22.1108   74.7261   -6.6302 C.3     1  UNL1        0.1760
     34 O          20.2726   77.8768   -5.7485 O.3     1  UNL1       -0.3801
     35 O          19.9613   75.5202   -7.4041 O.3     1  UNL1       -0.3794
     36 O          23.3735   75.1483   -6.1164 O.3     1  UNL1       -0.3263
     37 H          19.4248   77.6387   -6.1485 H       1  UNL1        0.2105
     38 H          20.1537   75.0770   -8.2426 H       1  UNL1        0.2105
     39 C          22.5946   78.7367   -3.2422 C.2     1  UNL1        0.2231
     40 C          22.3907   79.2948   -1.8569 C.3     1  UNL1        0.0946
     41 N          22.1444   77.5040   -3.5455 N.am    1  UNL1       -0.2994
     42 O          23.1647   79.3973   -4.0841 O.2     1  UNL1       -0.2751
     43 H          21.6884   76.9750   -2.8718 H       1  UNL1        0.1496
     44 C          22.3228   73.9888   -7.9541 C.3     1  UNL1        0.1693
     45 O          22.8337   72.6798   -7.6942 O.3     1  UNL1       -0.3794
     46 H          22.9530   72.2505   -8.5522 H       1  UNL1        0.2105
@<TRIPOS>BOND
     1    29    30    1
     2    29    28    1
     3    29    36    1
     4    30    31    1
     5    30    41    1
     6    31    32    1
     7    31    34    1
     8    32    33    1
     9    32    35    1
    10    33    44    1
    11    33    36    1
    12    44    45    1
    13    39    40    1
    14    39    41   am
    15    39    42    2
    16    41    43    1
    17    28    25    1
    18    34    37    1
    19    35    38    1
    20    45    46    1
    21    15    16   ar
    22    15    20   ar
    23    15     6    1
    24    16    17   ar
    25    16    21    2
    26    17    18   ar
    27    17    23    1
    28    18    19   ar
    29    18    22    2
    30    19    20   ar
    31     6     7    1
    32     6    11    1
    33     7     8    1
    34     7     9    1
    35     8    13    1
    36     9    10    1
    37     9    12    1
    38    10    11    1
    39    10     5    1
    40    12    14    1
    41     5     4    1
    42     4     1    1
    43     1     2    2
    44     1     3    1
    45     1    24    1
    46    24    25    1
    47    25    26    2
    48    25    27    1
@<TRIPOS>MOLECULE
UD1
 46 48 0 0 0
SMALL
GASTEIGER

@<TRIPOS>ATOM
      1 P          21.9921   73.4740   -5.0855 P.3     1  UNL1        0.2189
      2 O          22.9712   72.8338   -5.9910 O.2     1  UNL1       -0.5170
      3 O          20.7118   72.5129   -4.9134 O.3     1  UNL1       -0.4371
      4 O          21.5244   74.8822   -5.7109 O.3     1  UNL1       -0.3112
      5 C          22.1975   75.0229   -6.9630 C.3     1  UNL1        0.1811
      6 C          19.1901   73.8475   -8.5445 C.3     1  UNL1        0.2383
      7 C          18.7662   75.1530   -7.8262 C.3     1  UNL1        0.1895
      8 O          17.7088   75.8042   -8.5313 O.3     1  UNL1       -0.3779
      9 C          20.0685   75.9933   -7.8825 C.3     1  UNL1        0.1713
     10 C          21.1793   74.9480   -8.1017 C.3     1  UNL1        0.1764
     11 O          20.5543   73.6532   -8.1145 O.3     1  UNL1       -0.3308
     12 O          20.0207   76.9179   -8.9713 O.3     1  UNL1       -0.3794
     13 H          17.4925   76.6053   -8.0345 H       1  UNL1        0.2106
     14 H          19.2713   77.5055   -8.8060 H       1  UNL1        0.2105
     15 N          18.3509   72.7258   -8.1215 N.ar    1  UNL1       -0.2551
     16 C          18.2505   71.6368   -8.9033 C.ar    1  UNL1        0.3323
     17 N          17.4890   70.5887   -8.5374 N.ar    1  UNL1       -0.2743
     18 C          16.8031   70.6193   -7.3771 C.ar    1  UNL1        0.2626
     19 C          16.8950   71.7621   -6.5473 C.ar    1  UNL1        0.0795
     20 C          17.6703   72.7971   -6.9359 C.ar    1  UNL1        0.0869
     21 O          18.8632   71.5941   -9.9528 O.2     1  UNL1       -0.2464
     22 O          16.1105   69.6743   -7.0476 O.2     1  UNL1       -0.2670
     23 H          17.4320   69.8092   -9.1114 H       1  UNL1        0.1734
     24 O          22.6731   73.7246   -3.6494 O.3     1  UNL1       -0.2703
     25 P          21.4951   74.1692   -2.6475 P.3     1  UNL1        0.2208
     26 O          20.2167   74.2381   -3.3891 O.2     1  UNL1       -0.5170
     27 O          21.8339   75.6162   -2.0281 O.3     1  UNL1       -0.4371
     28 O          21.3673   73.0939   -1.4567 O.3     1  UNL1       -0.2865
     29 C          22.6856   72.6121   -1.1901 C.3     1  UNL1        0.2611
     30 C          22.6270   71.1095   -0.9095 C.3     1  UNL1        0.1582
     31 C          21.7064   70.8591    0.2902 C.3     1  UNL1        0.1625
     32 C          22.1831   71.7232    1.4625 C.3     1  UNL1        0.1686
     33 C          22.2722   73.1802    1.0038 C.3     1  UNL1        0.1760
     34 O          21.7604   69.4789    0.6554 O.3     1  UNL1       -0.3801
     35 O          21.2544   71.6169    2.5432 O.3     1  UNL1       -0.3794
     36 O          23.2194   73.2945   -0.0575 O.3     1  UNL1       -0.3263
     37 H          21.1681   69.3665    1.4116 H       1  UNL1        0.2105
     38 H          21.5917   72.1755    3.2578 H       1  UNL1        0.2105
     39 C          20.7953   70.0906   -2.1509 C.2     1  UNL1        0.2231
     40 C          20.2552   69.3719   -3.3609 C.3     1  UNL1        0.0946
     41 N          22.1017   70.4118   -2.0850 N.am    1  UNL1       -0.2994
     42 O          20.0538   70.3791   -1.2360 O.2     1  UNL1       -0.2751
     43 H          22.6954   70.1808   -2.8169 H       1  UNL1        0.1496
     44 C          22.7164   74.0566    2.1767 C.3     1  UNL1        0.1693
     45 O          21.5749   74.6912    2.7567 O.3     1  UNL1       -0.3794
     46 H          21.8980   75.2326    3.4896 H       1  UNL1        0.2105
@<TRIPOS>BOND
     1    29    30    1
     2    29    28    1
     3    29    36    1
     4    30    31    1
     5    30    41    1
     6    31    32    1
     7    31    34    1
     8    32    33    1
     9    32    35    1
    10    33    44    1
    11    33    36    1
    12    44    45    1
    13    39    40    1
    14    39    41   am
    15    39    42    2
    16    41    43    1
    17    28    25    1
    18    34    37    1
    19    35    38    1
    20    45    46    1
    21    15    16   ar
    22    15    20   ar
    23    15     6    1
    24    16    17   ar
    25    16    21    2
    26    17    18   ar
    27    17    23    1
    28    18    19   ar
    29    18    22    2
    30    19    20   ar
    31     6     7    1
    32     6    11    1
    33     7     8    1
    34     7     9    1
    35     8    13    1
    36     9    10    1
    37     9    12    1
    38    10    11    1
    39    10     5    1
    40    12    14    1
    41     5     4    1
    42     4     1    1
    43     1     2    2
    44     1     3    1
    45     1    24    1
    46    24    25    1
    47    25    26    2
    48    25    27    1
@<TRIPOS>MOLECULE
UD1
 46 48 0 0 0
SMALL
GASTEIGER

@<TRIPOS>ATOM
      1 P          22.5910   72.6500   -2.4803 P.3     1  UNL1        0.2189
      2 O          23.5024   71.9336   -3.3996 O.2     1  UNL1       -0.5170
      3 O          23.4562   73.4707   -1.3984 O.3     1  UNL1       -0.4371
      4 O          21.6519   71.5860   -1.7195 O.3     1  UNL1       -0.3112
      5 C          21.2793   70.5995   -2.6830 C.3     1  UNL1        0.1811
      6 C          18.5514   70.7065   -5.0228 C.3     1  UNL1        0.2383
      7 C          18.5234   69.2635   -4.4596 C.3     1  UNL1        0.1895
      8 O          17.1916   68.7486   -4.4390 O.3     1  UNL1       -0.3779
      9 C          19.0608   69.4658   -3.0189 C.3     1  UNL1        0.1713
     10 C          19.8186   70.8058   -3.0867 C.3     1  UNL1        0.1764
     11 O          19.7478   71.2711   -4.4453 O.3     1  UNL1       -0.3308
     12 O          17.9794   69.5417   -2.0876 O.3     1  UNL1       -0.3794
     13 H          17.2434   67.8520   -4.0801 H       1  UNL1        0.2106
     14 H          17.5100   68.6982   -2.1352 H       1  UNL1        0.2105
     15 N          18.6404   70.6923   -6.4834 N.ar    1  UNL1       -0.2551
     16 C          17.5155   70.6938   -7.2195 C.ar    1  UNL1        0.3323
     17 N          17.5673   70.6850   -8.5646 N.ar    1  UNL1       -0.2743
     18 C          18.7571   70.6650   -9.1987 C.ar    1  UNL1        0.2626
     19 C          19.9492   70.6572   -8.4359 C.ar    1  UNL1        0.0795
     20 C          19.8683   70.6718   -7.0881 C.ar    1  UNL1        0.0869
     21 O          16.4348   70.7118   -6.6622 O.2     1  UNL1       -0.2464
     22 O          18.8051   70.6522  -10.4148 O.2     1  UNL1       -0.2670
     23 H          16.7459   70.6910   -9.0798 H       1  UNL1        0.1734
     24 O          21.6739   73.6703   -3.3209 O.3     1  UNL1       -0.2703
     25 P          22.5448   74.1413   -4.5893 P.3     1  UNL1        0.2208
     26 O          23.0349   72.9519   -5.3201 O.2     1  UNL1       -0.5170
     27 O          23.7995   75.0151   -4.0850 O.3     1  UNL1       -0.4371
     28 O          21.6303   75.0333   -5.5684 O.3     1  UNL1       -0.2865
     29 C          21.3169   74.2186   -6.6994 C.3     1  UNL1        0.2611
     30 C          21.7679   74.9311   -7.9756 C.3     1  UNL1        0.1582
     31 C          21.0573   76.2859   -8.0712 C.3     1  UNL1        0.1625
     32 C          19.5469   76.0567   -7.9514 C.3     1  UNL1        0.1686
     33 C          19.2632   75.2617   -6.6751 C.3     1  UNL1        0.1760
     34 O          21.3543   76.8947   -9.3291 O.3     1  UNL1       -0.3801
     35 O          18.8757   77.3165   -7.8905 O.3     1  UNL1       -0.3794
     36 O          19.9099   73.9915   -6.7445 O.3     1  UNL1       -0.3263
     37 H          20.8886   77.7422   -9.3463 H       1  UNL1        0.2105
     38 H          17.9298   77.1262   -7.8149 H       1  UNL1        0.2105
     39 C          23.7184   76.3092   -7.4952 C.2     1  UNL1        0.2231
     40 C          25.2100   76.5229   -7.4538 C.3     1  UNL1        0.0946
     41 N          23.2169   75.1389   -7.9348 N.am    1  UNL1       -0.2994
     42 O          22.9693   77.1913   -7.1333 O.2     1  UNL1       -0.2751
     43 H          23.8161   74.4329   -8.2247 H       1  UNL1        0.1496
     44 C          17.7541   75.0554   -6.5291 C.3     1  UNL1        0.1693
     45 O          17.5025   74.0727   -5.5226 O.3     1  UNL1       -0.3794
     46 H          16.5427   73.9729   -5.4627 H       1  UNL1        0.2105
@<TRIPOS>BOND
     1    29    30    1
     2    29    28    1
     3    29    36    1
     4    30    31    1
     5    30    41    1
     6    31    32    1
     7    31    34    1
     8    32    33    1
     9    32    35    1
    10    33    44    1
    11    33    36    1
    12    44    45    1
    13    39    40    1
    14    39    41   am
    15    39    42    2
    16    41    43    1
    17    28    25    1
    18    34    37    1
    19    35    38    1
    20    45    46    1
    21    15    16   ar
    22    15    20   ar
    23    15     6    1
    24    16    17   ar
    25    16    21    2
    26    17    18   ar
    27    17    23    1
    28    18    19   ar
    29    18    22    2
    30    19    20   ar
    31     6     7    1
    32     6    11    1
    33     7     8    1
    34     7     9    1
    35     8    13    1
    36     9    10    1
    37     9    12    1
    38    10    11    1
    39    10     5    1
    40    12    14    1
    41     5     4    1
    42     4     1    1
    43     1     2    2
    44     1     3    1
    45     1    24    1
    46    24    25    1
    47    25    26    2
    48    25    27    1
@<TRIPOS>MOLECULE
UD1
 46 48 0 0 0
SMALL
GASTEIGER

@<TRIPOS>ATOM
      1 P          21.9916   73.9969   -6.2242 P.3     1  UNL1        0.2189
      2 O          22.9116   75.1519   -6.1334 O.2     1  UNL1       -0.5170
      3 O          22.7796   72.7290   -6.8276 O.3     1  UNL1       -0.4371
      4 O          20.7573   74.3692   -7.1890 O.3     1  UNL1       -0.3112
      5 C          20.9185   73.6009   -8.3824 C.3     1  UNL1        0.1811
      6 C          18.4578   71.2507   -7.2212 C.3     1  UNL1        0.2383
      7 C          17.7635   72.6305   -7.1016 C.3     1  UNL1        0.1895
      8 O          16.3532   72.5113   -7.2917 O.3     1  UNL1       -0.3779
      9 C          18.4136   73.4240   -8.2648 C.3     1  UNL1        0.1713
     10 C          19.7224   72.6629   -8.5517 C.3     1  UNL1        0.1764
     11 O          19.8087   71.5846   -7.6046 O.3     1  UNL1       -0.3308
     12 O          17.5617   73.4175   -9.4124 O.3     1  UNL1       -0.3794
     13 H          15.9827   73.4004   -7.2048 H       1  UNL1        0.2106
     14 H          16.7393   73.8534   -9.1522 H       1  UNL1        0.2105
     15 N          18.4441   70.5493   -5.9369 N.ar    1  UNL1       -0.2551
     16 C          17.3623   69.8359   -5.5788 C.ar    1  UNL1        0.3323
     17 N          17.3236   69.1775   -4.4053 N.ar    1  UNL1       -0.2743
     18 C          18.3734   69.2316   -3.5609 C.ar    1  UNL1        0.2626
     19 C          19.5162   69.9838   -3.9227 C.ar    1  UNL1        0.0795
     20 C          19.5306   70.6301   -5.1082 C.ar    1  UNL1        0.0869
     21 O          16.4077   69.7776   -6.3297 O.2     1  UNL1       -0.2464
     22 O          18.3375   68.6406   -2.4975 O.2     1  UNL1       -0.2670
     23 H          16.5370   68.6639   -4.1652 H       1  UNL1        0.1734
     24 O          21.4363   73.6365   -4.7576 O.3     1  UNL1       -0.2703
     25 P          22.7218   73.4012   -3.8187 P.3     1  UNL1        0.2208
     26 O          23.7640   74.3974   -4.1508 O.2     1  UNL1       -0.5170
     27 O          23.3007   71.9187   -4.0618 O.3     1  UNL1       -0.4371
     28 O          22.2971   73.5634   -2.2748 O.3     1  UNL1       -0.2865
     29 C          21.1022   72.8020   -2.0914 C.3     1  UNL1        0.2611
     30 C          20.1795   73.5369   -1.1175 C.3     1  UNL1        0.1582
     31 C          20.9093   73.7282    0.2168 C.3     1  UNL1        0.1625
     32 C          21.4134   72.3641    0.6997 C.3     1  UNL1        0.1686
     33 C          22.2457   71.7189   -0.4104 C.3     1  UNL1        0.1760
     34 O          20.0090   74.2782    1.1804 O.3     1  UNL1       -0.3801
     35 O          22.2217   72.5385    1.8650 O.3     1  UNL1       -0.3794
     36 O          21.4340   71.5182   -1.5668 O.3     1  UNL1       -0.3263
     37 H          20.5085   74.3819    2.0021 H       1  UNL1        0.2105
     38 H          22.5180   71.6575    2.1343 H       1  UNL1        0.2105
     39 C          18.5607   75.3027   -1.5597 C.2     1  UNL1        0.2231
     40 C          18.1930   76.6479   -2.1321 C.3     1  UNL1        0.0946
     41 N          19.8219   74.8438   -1.6729 N.am    1  UNL1       -0.2994
     42 O          17.7207   74.6329   -0.9976 O.2     1  UNL1       -0.2751
     43 H          20.4943   75.3795   -2.1229 H       1  UNL1        0.1496
     44 C          22.7812   70.3699    0.0738 C.3     1  UNL1        0.1693
     45 O          21.7306   69.6413    0.7122 O.3     1  UNL1       -0.3794
     46 H          22.1093   68.8003    1.0018 H       1  UNL1        0.2105
@<TRIPOS>BOND
     1    29    30    1
     2    29    28    1
     3    29    36    1
     4    30    31    1
     5    30    41    1
     6    31    32    1
     7    31    34    1
     8    32    33    1
     9    32    35    1
    10    33    44    1
    11    33    36    1
    12    44    45    1
    13    39    40    1
    14    39    41   am
    15    39    42    2
    16    41    43    1
    17    28    25    1
    18    34    37    1
    19    35    38    1
    20    45    46    1
    21    15    16   ar
    22    15    20   ar
    23    15     6    1
    24    16    17   ar
    25    16    21    2
    26    17    18   ar
    27    17    23    1
    28    18    19   ar
    29    18    22    2
    30    19    20   ar
    31     6     7    1
    32     6    11    1
    33     7     8    1
    34     7     9    1
    35     8    13    1
    36     9    10    1
    37     9    12    1
    38    10    11    1
    39    10     5    1
    40    12    14    1
    41     5     4    1
    42     4     1    1
    43     1     2    2
    44     1     3    1
    45     1    24    1
    46    24    25    1
    47    25    26    2
    48    25    27    1
@<TRIPOS>MOLECULE
UD1
 46 48 0 0 0
SMALL
GASTEIGER

@<TRIPOS>ATOM
      1 P          22.9651   72.1343   -2.5194 P.3     1  UNL1        0.2189
      2 O          23.8642   73.2226   -2.9622 O.2     1  UNL1       -0.5170
      3 O          23.4102   70.7531   -3.2170 O.3     1  UNL1       -0.4371
      4 O          21.4512   72.4844   -2.9419 O.3     1  UNL1       -0.3112
      5 C          20.6858   71.2914   -2.7652 C.3     1  UNL1        0.1811
      6 C          18.2098   71.1282   -5.3671 C.3     1  UNL1        0.2383
      7 C          18.0408   69.8006   -4.5866 C.3     1  UNL1        0.1895
      8 O          16.6849   69.3542   -4.6250 O.3     1  UNL1       -0.3779
      9 C          18.4467   70.2146   -3.1482 C.3     1  UNL1        0.1713
     10 C          19.2863   71.4910   -3.3488 C.3     1  UNL1        0.1764
     11 O          19.3760   71.7282   -4.7641 O.3     1  UNL1       -0.3308
     12 O          17.2862   70.4899   -2.3606 O.3     1  UNL1       -0.3794
     13 H          16.6478   68.5277   -4.1239 H       1  UNL1        0.2106
     14 H          16.7741   69.6712   -2.3221 H       1  UNL1        0.2105
     15 N          18.4395   70.8692   -6.7890 N.ar    1  UNL1       -0.2551
     16 C          17.3913   70.7491   -7.6221 C.ar    1  UNL1        0.3323
     17 N          17.5729   70.5147   -8.9353 N.ar    1  UNL1       -0.2743
     18 C          18.8178   70.3868   -9.4368 C.ar    1  UNL1        0.2626
     19 C          19.9302   70.5051   -8.5699 C.ar    1  UNL1        0.0795
     20 C          19.7195   70.7456   -7.2580 C.ar    1  UNL1        0.0869
     21 O          16.2623   70.8620   -7.1848 O.2     1  UNL1       -0.2464
     22 O          18.9831   70.1702  -10.6231 O.2     1  UNL1       -0.2670
     23 H          16.8054   70.4357   -9.5226 H       1  UNL1        0.1734
     24 O          23.0540   71.9819   -0.9201 O.3     1  UNL1       -0.2703
     25 P          22.8437   73.4521   -0.3006 P.3     1  UNL1        0.2208
     26 O          21.5761   74.0235   -0.8060 O.2     1  UNL1       -0.5170
     27 O          24.0702   74.3995   -0.7369 O.3     1  UNL1       -0.4371
     28 O          22.7865   73.3561    1.3050 O.3     1  UNL1       -0.2865
     29 C          22.5748   74.6823    1.7922 C.3     1  UNL1        0.2611
     30 C          23.6878   75.0419    2.7781 C.3     1  UNL1        0.1582
     31 C          23.6798   74.0336    3.9326 C.3     1  UNL1        0.1625
     32 C          22.2698   73.9844    4.5306 C.3     1  UNL1        0.1686
     33 C          21.2640   73.7015    3.4128 C.3     1  UNL1        0.1760
     34 O          24.6138   74.4438    4.9330 O.3     1  UNL1       -0.3801
     35 O          22.2022   72.9465    5.5103 O.3     1  UNL1       -0.3794
     36 O          21.3095   74.7505    2.4464 O.3     1  UNL1       -0.3263
     37 H          24.5763   73.7829    5.6380 H       1  UNL1        0.2105
     38 H          21.2998   72.9500    5.8597 H       1  UNL1        0.2105
     39 C          25.7726   76.0849    2.0709 C.2     1  UNL1        0.2231
     40 C          27.1044   76.0360    1.3666 C.3     1  UNL1        0.0946
     41 N          24.9819   74.9947    2.0944 N.am    1  UNL1       -0.2994
     42 O          25.4122   77.1062    2.6162 O.2     1  UNL1       -0.2751
     43 H          25.2699   74.1774    1.6580 H       1  UNL1        0.1496
     44 C          19.8556   73.6181    4.0049 C.3     1  UNL1        0.1693
     45 O          19.9431   73.4123    5.4163 O.3     1  UNL1       -0.3794
     46 H          19.0366   73.3653    5.7490 H       1  UNL1        0.2105
@<TRIPOS>BOND
     1    29    30    1
     2    29    28    1
     3    29    36    1
     4    30    31    1
     5    30    41    1
     6    31    32    1
     7    31    34    1
     8    32    33    1
     9    32    35    1
    10    33    44    1
    11    33    36    1
    12    44    45    1
    13    39    40    1
    14    39    41   am
    15    39    42    2
    16    41    43    1
    17    28    25    1
    18    34    37    1
    19    35    38    1
    20    45    46    1
    21    15    16   ar
    22    15    20   ar
    23    15     6    1
    24    16    17   ar
    25    16    21    2
    26    17    18   ar
    27    17    23    1
    28    18    19   ar
    29    18    22    2
    30    19    20   ar
    31     6     7    1
    32     6    11    1
    33     7     8    1
    34     7     9    1
    35     8    13    1
    36     9    10    1
    37     9    12    1
    38    10    11    1
    39    10     5    1
    40    12    14    1
    41     5     4    1
    42     4     1    1
    43     1     2    2
    44     1     3    1
    45     1    24    1
    46    24    25    1
    47    25    26    2
    48    25    27    1
@<TRIPOS>MOLECULE
UD1
 46 48 0 0 0
SMALL
GASTEIGER

@<TRIPOS>ATOM
      1 P          20.3721   70.2199   -2.2382 P.3     1  UNL1        0.2189
      2 O          21.5371   69.3121   -2.3243 O.2     1  UNL1       -0.5170
      3 O          19.0161   69.3520   -2.2117 O.3     1  UNL1       -0.4371
      4 O          20.3579   71.1967   -3.5183 O.3     1  UNL1       -0.3112
      5 C          19.6008   70.5368   -4.5341 C.3     1  UNL1        0.1811
      6 C          18.9795   72.4498   -7.5143 C.3     1  UNL1        0.2383
      7 C          19.6772   73.4444   -6.5530 C.3     1  UNL1        0.1895
      8 O          20.4430   74.4059   -7.2799 O.3     1  UNL1       -0.3779
      9 C          20.6009   72.5087   -5.7305 C.3     1  UNL1        0.1713
     10 C          19.9690   71.1138   -5.9018 C.3     1  UNL1        0.1764
     11 O          18.7838   71.2741   -6.6999 O.3     1  UNL1       -0.3308
     12 O          21.9302   72.5307   -6.2549 O.3     1  UNL1       -0.3794
     13 H          20.8490   74.9924   -6.6267 H       1  UNL1        0.2106
     14 H          22.2474   73.4401   -6.1740 H       1  UNL1        0.2105
     15 N          17.6946   72.9820   -7.9695 N.ar    1  UNL1       -0.2551
     16 C          17.5670   73.4263   -9.2319 C.ar    1  UNL1        0.3323
     17 N          16.3960   73.9174   -9.6789 N.ar    1  UNL1       -0.2743
     18 C          15.3280   73.9801   -8.8584 C.ar    1  UNL1        0.2626
     19 C          15.4500   73.5214   -7.5251 C.ar    1  UNL1        0.0795
     20 C          16.6347   73.0286   -7.1044 C.ar    1  UNL1        0.0869
     21 O          18.5213   73.3763   -9.9840 O.2     1  UNL1       -0.2464
     22 O          14.2701   74.4284   -9.2601 O.2     1  UNL1       -0.2670
     23 H          16.3207   74.2291  -10.5940 H       1  UNL1        0.1734
     24 O          20.4744   71.0985   -0.8942 O.3     1  UNL1       -0.2703
     25 P          21.9025   70.7680   -0.2303 P.3     1  UNL1        0.2208
     26 O          22.9331   70.6935   -1.2891 O.2     1  UNL1       -0.5170
     27 O          21.8230   69.3567    0.5404 O.3     1  UNL1       -0.4371
     28 O          22.2908   71.9279    0.8157 O.3     1  UNL1       -0.2865
     29 C          21.0643   72.4487    1.3313 C.3     1  UNL1        0.2611
     30 C          20.9535   73.9309    0.9698 C.3     1  UNL1        0.1582
     31 C          22.1515   74.6821    1.5615 C.3     1  UNL1        0.1625
     32 C          22.2265   74.3807    3.0621 C.3     1  UNL1        0.1686
     33 C          22.2444   72.8643    3.2655 C.3     1  UNL1        0.1760
     34 O          21.9833   76.0865    1.3597 O.3     1  UNL1       -0.3801
     35 O          23.4186   74.9513    3.6052 O.3     1  UNL1       -0.3794
     36 O          21.0425   72.2943    2.7487 O.3     1  UNL1       -0.3263
     37 H          22.7574   76.5190    1.7458 H       1  UNL1        0.2105
     38 H          23.4261   74.7377    4.5490 H       1  UNL1        0.2105
     39 C          19.8262   74.4593   -1.1241 C.2     1  UNL1        0.2231
     40 C          19.8241   74.6133   -2.6236 C.3     1  UNL1        0.0946
     41 N          20.9510   74.0812   -0.4868 N.am    1  UNL1       -0.2994
     42 O          18.8149   74.6752   -0.4910 O.2     1  UNL1       -0.2751
     43 H          21.7604   73.9081   -0.9932 H       1  UNL1        0.1496
     44 C          22.3520   72.5526    4.7597 C.3     1  UNL1        0.1693
     45 O          21.1573   72.9731    5.4216 O.3     1  UNL1       -0.3794
     46 H          21.2663   72.7594    6.3581 H       1  UNL1        0.2105
@<TRIPOS>BOND
     1    29    30    1
     2    29    28    1
     3    29    36    1
     4    30    31    1
     5    30    41    1
     6    31    32    1
     7    31    34    1
     8    32    33    1
     9    32    35    1
    10    33    44    1
    11    33    36    1
    12    44    45    1
    13    39    40    1
    14    39    41   am
    15    39    42    2
    16    41    43    1
    17    28    25    1
    18    34    37    1
    19    35    38    1
    20    45    46    1
    21    15    16   ar
    22    15    20   ar
    23    15     6    1
    24    16    17   ar
    25    16    21    2
    26    17    18   ar
    27    17    23    1
    28    18    19   ar
    29    18    22    2
    30    19    20   ar
    31     6     7    1
    32     6    11    1
    33     7     8    1
    34     7     9    1
    35     8    13    1
    36     9    10    1
    37     9    12    1
    38    10    11    1
    39    10     5    1
    40    12    14    1
    41     5     4    1
    42     4     1    1
    43     1     2    2
    44     1     3    1
    45     1    24    1
    46    24    25    1
    47    25    26    2
    48    25    27    1
@<TRIPOS>MOLECULE
UD1
 46 48 0 0 0
SMALL
GASTEIGER

@<TRIPOS>ATOM
      1 P          19.0178   75.0206   -1.5409 P.3     1  UNL1        0.2189
      2 O          19.4524   74.6539   -0.1751 O.2     1  UNL1       -0.5170
      3 O          18.0846   76.3310   -1.4736 O.3     1  UNL1       -0.4371
      4 O          18.1844   73.8019   -2.1836 O.3     1  UNL1       -0.3112
      5 C          17.2137   74.3799   -3.0578 C.3     1  UNL1        0.1811
      6 C          16.7330   71.7309   -5.4408 C.3     1  UNL1        0.2383
      7 C          17.2431   71.0167   -4.1641 C.3     1  UNL1        0.1895
      8 O          16.7088   69.6958   -4.0692 O.3     1  UNL1       -0.3779
      9 C          16.6819   71.9229   -3.0377 C.3     1  UNL1        0.1713
     10 C          16.4133   73.2686   -3.7387 C.3     1  UNL1        0.1764
     11 O          16.8334   73.1316   -5.1070 O.3     1  UNL1       -0.3308
     12 O          15.4711   71.3752   -2.5115 O.3     1  UNL1       -0.3794
     13 H          17.0636   69.3077   -3.2575 H       1  UNL1        0.2106
     14 H          15.6935   70.5105   -2.1413 H       1  UNL1        0.2105
     15 N          17.5822   71.4117   -6.5890 N.ar    1  UNL1       -0.2551
     16 C          17.0628   71.4349   -7.8288 C.ar    1  UNL1        0.3323
     17 N          17.8215   71.1496   -8.9036 N.ar    1  UNL1       -0.2743
     18 C          19.1212   70.8249   -8.7510 C.ar    1  UNL1        0.2626
     19 C          19.6794   70.7908   -7.4509 C.ar    1  UNL1        0.0795
     20 C          18.8971   71.0866   -6.3908 C.ar    1  UNL1        0.0869
     21 O          15.8923   71.7260   -7.9826 O.2     1  UNL1       -0.2464
     22 O          19.8069   70.5620   -9.7216 O.2     1  UNL1       -0.2670
     23 H          17.4316   71.1758   -9.7909 H       1  UNL1        0.1734
     24 O          20.3090   75.3262   -2.4510 O.3     1  UNL1       -0.2703
     25 P          21.0674   73.9237   -2.6680 P.3     1  UNL1        0.2208
     26 O          22.4515   74.1770   -3.1251 O.2     1  UNL1       -0.5170
     27 O          20.2868   73.0567   -3.7776 O.3     1  UNL1       -0.4371
     28 O          21.1013   73.1101   -1.2797 O.3     1  UNL1       -0.2865
     29 C          22.4673   72.7751   -1.0288 C.3     1  UNL1        0.2611
     30 C          22.5790   71.2719   -0.7682 C.3     1  UNL1        0.1582
     31 C          21.7023   70.9052    0.4345 C.3     1  UNL1        0.1625
     32 C          22.0896   71.8021    1.6150 C.3     1  UNL1        0.1686
     33 C          22.0119   73.2657    1.1753 C.3     1  UNL1        0.1760
     34 O          21.9129   69.5350    0.7805 O.3     1  UNL1       -0.3801
     35 O          21.1878   71.5792    2.7006 O.3     1  UNL1       -0.3794
     36 O          22.9314   73.4983    0.1091 O.3     1  UNL1       -0.3263
     37 H          21.3433   69.3478    1.5393 H       1  UNL1        0.2105
     38 H          21.4668   72.1629    3.4203 H       1  UNL1        0.2105
     39 C          20.8609   70.0732   -2.0116 C.2     1  UNL1        0.2231
     40 C          20.3940   69.3141   -3.2274 C.3     1  UNL1        0.0946
     41 N          22.1248   70.5348   -1.9493 N.am    1  UNL1       -0.2994
     42 O          20.0989   70.2680   -1.0888 O.2     1  UNL1       -0.2751
     43 H          22.7349   70.3789   -2.6875 H       1  UNL1        0.1496
     44 C          22.3655   74.1713    2.3568 C.3     1  UNL1        0.1693
     45 O          21.1835   74.4617    3.1055 O.3     1  UNL1       -0.3794
     46 H          21.4498   75.0332    3.8383 H       1  UNL1        0.2105
@<TRIPOS>BOND
     1    29    30    1
     2    29    28    1
     3    29    36    1
     4    30    31    1
     5    30    41    1
     6    31    32    1
     7    31    34    1
     8    32    33    1
     9    32    35    1
    10    33    44    1
    11    33    36    1
    12    44    45    1
    13    39    40    1
    14    39    41   am
    15    39    42    2
    16    41    43    1
    17    28    25    1
    18    34    37    1
    19    35    38    1
    20    45    46    1
    21    15    16   ar
    22    15    20   ar
    23    15     6    1
    24    16    17   ar
    25    16    21    2
    26    17    18   ar
    27    17    23    1
    28    18    19   ar
    29    18    22    2
    30    19    20   ar
    31     6     7    1
    32     6    11    1
    33     7     8    1
    34     7     9    1
    35     8    13    1
    36     9    10    1
    37     9    12    1
    38    10    11    1
    39    10     5    1
    40    12    14    1
    41     5     4    1
    42     4     1    1
    43     1     2    2
    44     1     3    1
    45     1    24    1
    46    24    25    1
    47    25    26    2
    48    25    27    1
@<TRIPOS>MOLECULE
UD1
 46 48 0 0 0
SMALL
GASTEIGER

@<TRIPOS>ATOM
      1 P          22.8592   71.8692   -3.3955 P.3     1  UNL1        0.2189
      2 O          23.4973   70.5458   -3.2215 O.2     1  UNL1       -0.5170
      3 O          23.8931   72.8733   -4.1136 O.3     1  UNL1       -0.4371
      4 O          22.4508   72.4610   -1.9548 O.3     1  UNL1       -0.3112
      5 C          21.7386   71.4293   -1.2703 C.3     1  UNL1        0.1811
      6 C          21.2050   73.2459    1.7862 C.3     1  UNL1        0.2383
      7 C          21.1179   74.3218    0.6749 C.3     1  UNL1        0.1895
      8 O          20.2264   75.3726    1.0496 O.3     1  UNL1       -0.3779
      9 C          20.5479   73.5118   -0.5185 C.3     1  UNL1        0.1713
     10 C          20.8769   72.0477   -0.1684 C.3     1  UNL1        0.1764
     11 O          21.6021   72.0554    1.0731 O.3     1  UNL1       -0.3308
     12 O          19.1354   73.7027   -0.6237 O.3     1  UNL1       -0.3794
     13 H          20.2176   76.0064    0.3190 H       1  UNL1        0.2106
     14 H          18.9920   74.6451   -0.7831 H       1  UNL1        0.2105
     15 N          22.2119   73.6100    2.7838 N.ar    1  UNL1       -0.2551
     16 C          23.3662   74.1752    2.3898 C.ar    1  UNL1        0.3323
     17 N          24.3085   74.5239    3.2858 N.ar    1  UNL1       -0.2743
     18 C          24.1111   74.3014    4.6009 C.ar    1  UNL1        0.2626
     19 C          22.9029   73.7016    5.0289 C.ar    1  UNL1        0.0795
     20 C          21.9725   73.3666    4.1094 C.ar    1  UNL1        0.0869
     21 O          23.5589   74.3824    1.2072 O.2     1  UNL1       -0.2464
     22 O          24.9644   74.6119    5.4114 O.2     1  UNL1       -0.2670
     23 H          25.1333   74.9350    2.9843 H       1  UNL1        0.1734
     24 O          21.5410   71.7139   -4.3050 O.3     1  UNL1       -0.2703
     25 P          21.5257   72.9636   -5.3186 P.3     1  UNL1        0.2208
     26 O          22.7695   72.9641   -6.1197 O.2     1  UNL1       -0.5170
     27 O          21.4280   74.3345   -4.4800 O.3     1  UNL1       -0.4371
     28 O          20.2555   72.8448   -6.2999 O.3     1  UNL1       -0.2865
     29 C          20.2563   71.5141   -6.8197 C.3     1  UNL1        0.2611
     30 C          20.2265   71.5688   -8.3481 C.3     1  UNL1        0.1582
     31 C          18.9712   72.3247   -8.7981 C.3     1  UNL1        0.1625
     32 C          17.7470   71.6746   -8.1449 C.3     1  UNL1        0.1686
     33 C          17.9627   71.6146   -6.6312 C.3     1  UNL1        0.1760
     34 O          18.8536   72.2538  -10.2203 O.3     1  UNL1       -0.3801
     35 O          16.5827   72.4512   -8.4328 O.3     1  UNL1       -0.3794
     36 O          19.1092   70.8168   -6.3389 O.3     1  UNL1       -0.3263
     37 H          18.0531   72.7411  -10.4591 H       1  UNL1        0.2105
     38 H          15.8375   72.0079   -8.0031 H       1  UNL1        0.2105
     39 C          21.3842   73.5926   -9.0540 C.2     1  UNL1        0.2231
     40 C          22.6121   74.3074   -9.5576 C.3     1  UNL1        0.0946
     41 N          21.4192   72.2637   -8.8368 N.am    1  UNL1       -0.2994
     42 O          20.3641   74.2138   -8.8449 O.2     1  UNL1       -0.2751
     43 H          22.2353   71.7663   -9.0043 H       1  UNL1        0.1496
     44 C          16.7314   70.9963   -5.9660 C.3     1  UNL1        0.1693
     45 O          16.3043   69.8584   -6.7176 O.3     1  UNL1       -0.3794
     46 H          15.5284   69.4998   -6.2659 H       1  UNL1        0.2105
@<TRIPOS>BOND
     1    29    30    1
     2    29    28    1
     3    29    36    1
     4    30    31    1
     5    30    41    1
     6    31    32    1
     7    31    34    1
     8    32    33    1
     9    32    35    1
    10    33    44    1
    11    33    36    1
    12    44    45    1
    13    39    40    1
    14    39    41   am
    15    39    42    2
    16    41    43    1
    17    28    25    1
    18    34    37    1
    19    35    38    1
    20    45    46    1
    21    15    16   ar
    22    15    20   ar
    23    15     6    1
    24    16    17   ar
    25    16    21    2
    26    17    18   ar
    27    17    23    1
    28    18    19   ar
    29    18    22    2
    30    19    20   ar
    31     6     7    1
    32     6    11    1
    33     7     8    1
    34     7     9    1
    35     8    13    1
    36     9    10    1
    37     9    12    1
    38    10    11    1
    39    10     5    1
    40    12    14    1
    41     5     4    1
    42     4     1    1
    43     1     2    2
    44     1     3    1
    45     1    24    1
    46    24    25    1
    47    25    26    2
    48    25    27    1
@<TRIPOS>MOLECULE
UD1
 46 48 0 0 0
SMALL
GASTEIGER

@<TRIPOS>ATOM
      1 P          22.0638   70.9617   -0.3136 P.3     1  UNL1        0.2189
      2 O          22.9673   70.5212   -1.3991 O.2     1  UNL1       -0.5170
      3 O          21.6302   69.6897    0.5733 O.3     1  UNL1       -0.4371
      4 O          20.7513   71.6423   -0.9515 O.3     1  UNL1       -0.3112
      5 C          20.8006   71.3983   -2.3581 C.3     1  UNL1        0.1811
      6 C          18.3749   70.6823   -4.9135 C.3     1  UNL1        0.2383
      7 C          18.8000   69.2909   -4.3810 C.3     1  UNL1        0.1895
      8 O          17.7255   68.3555   -4.4802 O.3     1  UNL1       -0.3779
      9 C          19.1315   69.5974   -2.8973 C.3     1  UNL1        0.1713
     10 C          19.3900   71.1164   -2.8776 C.3     1  UNL1        0.1764
     11 O          19.2625   71.5915   -4.2286 O.3     1  UNL1       -0.3308
     12 O          18.0251   69.2608   -2.0575 O.3     1  UNL1       -0.3794
     13 H          18.0539   67.5139   -4.1347 H       1  UNL1        0.2106
     14 H          17.8760   68.3113   -2.1593 H       1  UNL1        0.2105
     15 N          18.5678   70.7653   -6.3617 N.ar    1  UNL1       -0.2551
     16 C          17.5396   70.5025   -7.1870 C.ar    1  UNL1        0.3323
     17 N          17.6873   70.5750   -8.5231 N.ar    1  UNL1       -0.2743
     18 C          18.8800   70.9057   -9.0580 C.ar    1  UNL1        0.2626
     19 C          19.9724   71.1790   -8.2008 C.ar    1  UNL1        0.0795
     20 C          19.7952   71.1042   -6.8643 C.ar    1  UNL1        0.0869
     21 O          16.4577   70.2030   -6.7197 O.2     1  UNL1       -0.2464
     22 O          19.0159   70.9668  -10.2659 O.2     1  UNL1       -0.2670
     23 H          16.9336   70.3868   -9.1034 H       1  UNL1        0.1734
     24 O          22.8244   72.0316    0.6168 O.3     1  UNL1       -0.2703
     25 P          21.6902   72.8160    1.4461 P.3     1  UNL1        0.2208
     26 O          21.0534   71.8898    2.4081 O.2     1  UNL1       -0.5170
     27 O          20.5769   73.3825    0.4303 O.3     1  UNL1       -0.4371
     28 O          22.3594   74.0426    2.2449 O.3     1  UNL1       -0.2865
     29 C          21.8203   74.0191    3.5678 C.3     1  UNL1        0.2611
     30 C          20.8334   75.1763    3.7316 C.3     1  UNL1        0.1582
     31 C          21.5630   76.4984    3.4681 C.3     1  UNL1        0.1625
     32 C          22.8000   76.5637    4.3700 C.3     1  UNL1        0.1686
     33 C          23.6402   75.3030    4.1557 C.3     1  UNL1        0.1760
     34 O          20.6928   77.5926    3.7631 O.3     1  UNL1       -0.3801
     35 O          23.5739   77.7178    4.0370 O.3     1  UNL1       -0.3794
     36 O          22.8794   74.1500    4.5136 O.3     1  UNL1       -0.3263
     37 H          21.1909   78.4019    3.5835 H       1  UNL1        0.2105
     38 H          24.3413   77.7197    4.6266 H       1  UNL1        0.2105
     39 C          18.4741   75.3208    3.1424 C.2     1  UNL1        0.2231
     40 C          17.3440   75.1622    2.1575 C.3     1  UNL1        0.0946
     41 N          19.7353   75.0229    2.7751 N.am    1  UNL1       -0.2994
     42 O          18.2480   75.7162    4.2661 O.2     1  UNL1       -0.2751
     43 H          19.9165   74.7062    1.8759 H       1  UNL1        0.1496
     44 C          24.8952   75.3735    5.0283 C.3     1  UNL1        0.1693
     45 O          25.5371   74.0969    5.0443 O.3     1  UNL1       -0.3794
     46 H          26.3206   74.1846    5.6038 H       1  UNL1        0.2105
@<TRIPOS>BOND
     1    29    30    1
     2    29    28    1
     3    29    36    1
     4    30    31    1
     5    30    41    1
     6    31    32    1
     7    31    34    1
     8    32    33    1
     9    32    35    1
    10    33    44    1
    11    33    36    1
    12    44    45    1
    13    39    40    1
    14    39    41   am
    15    39    42    2
    16    41    43    1
    17    28    25    1
    18    34    37    1
    19    35    38    1
    20    45    46    1
    21    15    16   ar
    22    15    20   ar
    23    15     6    1
    24    16    17   ar
    25    16    21    2
    26    17    18   ar
    27    17    23    1
    28    18    19   ar
    29    18    22    2
    30    19    20   ar
    31     6     7    1
    32     6    11    1
    33     7     8    1
    34     7     9    1
    35     8    13    1
    36     9    10    1
    37     9    12    1
    38    10    11    1
    39    10     5    1
    40    12    14    1
    41     5     4    1
    42     4     1    1
    43     1     2    2
    44     1     3    1
    45     1    24    1
    46    24    25    1
    47    25    26    2
    48    25    27    1
@<TRIPOS>MOLECULE
UD1
 46 48 0 0 0
SMALL
GASTEIGER

@<TRIPOS>ATOM
      1 P          22.1766   73.1681   -1.8537 P.3     1  UNL1        0.2189
      2 O          22.0284   72.4497   -0.5689 O.2     1  UNL1       -0.5170
      3 O          21.2113   74.4567   -1.8625 O.3     1  UNL1       -0.4371
      4 O          21.7728   72.1879   -3.0657 O.3     1  UNL1       -0.3112
      5 C          21.0901   71.0743   -2.4875 C.3     1  UNL1        0.1811
      6 C          18.4584   70.7865   -4.9203 C.3     1  UNL1        0.2383
      7 C          18.6048   69.3591   -4.3362 C.3     1  UNL1        0.1895
      8 O          17.3547   68.6692   -4.3531 O.3     1  UNL1       -0.3779
      9 C          19.0581   69.6475   -2.8814 C.3     1  UNL1        0.1713
     10 C          19.6303   71.0769   -2.9439 C.3     1  UNL1        0.1764
     11 O          19.5463   71.5138   -4.3111 O.3     1  UNL1       -0.3308
     12 O          17.9436   69.5865   -1.9887 O.3     1  UNL1       -0.3794
     13 H          17.5139   67.7916   -3.9789 H       1  UNL1        0.2106
     14 H          17.5942   68.6868   -2.0393 H       1  UNL1        0.2105
     15 N          18.6007   70.7690   -6.3766 N.ar    1  UNL1       -0.2551
     16 C          17.5109   70.6282   -7.1510 C.ar    1  UNL1        0.3323
     17 N          17.6116   70.6125   -8.4933 N.ar    1  UNL1       -0.2743
     18 C          18.8172   70.7294   -9.0856 C.ar    1  UNL1        0.2626
     19 C          19.9735   70.8722   -8.2822 C.ar    1  UNL1        0.0795
     20 C          19.8432   70.8901   -6.9383 C.ar    1  UNL1        0.0869
     21 O          16.4165   70.5217   -6.6316 O.2     1  UNL1       -0.2464
     22 O          18.9100   70.7106  -10.2991 O.2     1  UNL1       -0.2670
     23 H          16.8144   70.5149   -9.0365 H       1  UNL1        0.1734
     24 O          23.7046   73.6398   -2.0316 O.3     1  UNL1       -0.2703
     25 P          23.9230   73.9265   -3.5998 P.3     1  UNL1        0.2208
     26 O          23.0257   75.0210   -4.0307 O.2     1  UNL1       -0.5170
     27 O          23.5872   72.5956   -4.4413 O.3     1  UNL1       -0.4371
     28 O          25.4529   74.3528   -3.8608 O.3     1  UNL1       -0.2865
     29 C          25.5504   75.7476   -3.5672 C.3     1  UNL1        0.2611
     30 C          26.0817   76.4866   -4.7967 C.3     1  UNL1        0.1582
     31 C          27.4540   75.9152   -5.1707 C.3     1  UNL1        0.1625
     32 C          28.3600   75.9682   -3.9360 C.3     1  UNL1        0.1686
     33 C          27.6579   75.2655   -2.7721 C.3     1  UNL1        0.1760
     34 O          28.0265   76.6942   -6.2227 O.3     1  UNL1       -0.3801
     35 O          29.5946   75.3074   -4.2204 O.3     1  UNL1       -0.3794
     36 O          26.4376   75.9396   -2.4675 O.3     1  UNL1       -0.3263
     37 H          28.8862   76.3005   -6.4259 H       1  UNL1        0.2105
     38 H          30.1331   75.3634   -3.4183 H       1  UNL1        0.2105
     39 C          24.8679   77.3422   -6.7277 C.2     1  UNL1        0.2231
     40 C          23.9124   77.1566   -7.8788 C.3     1  UNL1        0.0946
     41 N          25.1539   76.3066   -5.9153 N.am    1  UNL1       -0.2994
     42 O          25.3789   78.4243   -6.5324 O.2     1  UNL1       -0.2751
     43 H          24.7449   75.4406   -6.0712 H       1  UNL1        0.1496
     44 C          28.5685   75.2845   -1.5426 C.3     1  UNL1        0.1693
     45 O          29.5132   74.2161   -1.6325 O.3     1  UNL1       -0.3794
     46 H          30.0656   74.2637   -0.8405 H       1  UNL1        0.2105
@<TRIPOS>BOND
     1    29    30    1
     2    29    28    1
     3    29    36    1
     4    30    31    1
     5    30    41    1
     6    31    32    1
     7    31    34    1
     8    32    33    1
     9    32    35    1
    10    33    44    1
    11    33    36    1
    12    44    45    1
    13    39    40    1
    14    39    41   am
    15    39    42    2
    16    41    43    1
    17    28    25    1
    18    34    37    1
    19    35    38    1
    20    45    46    1
    21    15    16   ar
    22    15    20   ar
    23    15     6    1
    24    16    17   ar
    25    16    21    2
    26    17    18   ar
    27    17    23    1
    28    18    19   ar
    29    18    22    2
    30    19    20   ar
    31     6     7    1
    32     6    11    1
    33     7     8    1
    34     7     9    1
    35     8    13    1
    36     9    10    1
    37     9    12    1
    38    10    11    1
    39    10     5    1
    40    12    14    1
    41     5     4    1
    42     4     1    1
    43     1     2    2
    44     1     3    1
    45     1    24    1
    46    24    25    1
    47    25    26    2
    48    25    27    1
@<TRIPOS>MOLECULE
UD1
 46 48 0 0 0
SMALL
GASTEIGER

@<TRIPOS>ATOM
      1 P          18.8911   75.2828   -1.4937 P.3     1  UNL1        0.2189
      2 O          18.6934   74.2548   -0.4483 O.2     1  UNL1       -0.5170
      3 O          17.5304   76.1220   -1.6855 O.3     1  UNL1       -0.4371
      4 O          19.2792   74.5669   -2.8829 O.3     1  UNL1       -0.3112
      5 C          19.1207   73.1615   -2.6826 C.3     1  UNL1        0.1811
      6 C          17.4053   71.6173   -5.4395 C.3     1  UNL1        0.2383
      7 C          17.6371   70.4640   -4.4314 C.3     1  UNL1        0.1895
      8 O          16.5948   69.4917   -4.5186 O.3     1  UNL1       -0.3779
      9 C          17.5889   71.2063   -3.0706 C.3     1  UNL1        0.1713
     10 C          17.8810   72.6748   -3.4347 C.3     1  UNL1        0.1764
     11 O          18.1170   72.7273   -4.8520 O.3     1  UNL1       -0.3308
     12 O          16.2950   71.0792   -2.4768 O.3     1  UNL1       -0.3794
     13 H          16.7979   68.8043   -3.8693 H       1  UNL1        0.2106
     14 H          16.1473   70.1356   -2.3285 H       1  UNL1        0.2105
     15 N          17.9635   71.2818   -6.7499 N.ar    1  UNL1       -0.2551
     16 C          17.1831   70.7007   -7.6776 C.ar    1  UNL1        0.3323
     17 N          17.6688   70.3847   -8.8927 N.ar    1  UNL1       -0.2743
     18 C          18.9573   70.6397   -9.1968 C.ar    1  UNL1        0.2626
     19 C          19.7917   71.2456   -8.2274 C.ar    1  UNL1        0.0795
     20 C          19.2773   71.5571   -7.0184 C.ar    1  UNL1        0.0869
     21 O          16.0188   70.4645   -7.4184 O.2     1  UNL1       -0.2464
     22 O          19.3988   70.3500  -10.2934 O.2     1  UNL1       -0.2670
     23 H          17.0903   69.9703   -9.5514 H       1  UNL1        0.1734
     24 O          20.0775   76.2759   -1.0523 O.3     1  UNL1       -0.2703
     25 P          20.9022   75.5276    0.1093 P.3     1  UNL1        0.2208
     26 O          20.1715   75.6498    1.3899 O.2     1  UNL1       -0.5170
     27 O          22.3567   76.2023    0.2558 O.3     1  UNL1       -0.4371
     28 O          21.0694   73.9716   -0.2667 O.3     1  UNL1       -0.2865
     29 C          22.4701   73.7273   -0.4069 C.3     1  UNL1        0.2611
     30 C          22.6986   72.7429   -1.5552 C.3     1  UNL1        0.1582
     31 C          21.9494   71.4397   -1.2548 C.3     1  UNL1        0.1625
     32 C          22.3749   70.9375    0.1290 C.3     1  UNL1        0.1686
     33 C          22.1679   72.0574    1.1509 C.3     1  UNL1        0.1760
     34 O          22.2749   70.4614   -2.2439 O.3     1  UNL1       -0.3801
     35 O          21.5820   69.8055    0.4912 O.3     1  UNL1       -0.3794
     36 O          22.9795   73.1798    0.8072 O.3     1  UNL1       -0.3263
     37 H          21.7830   69.6602   -2.0169 H       1  UNL1        0.2105
     38 H          21.8816   69.5227    1.3668 H       1  UNL1        0.2105
     39 C          22.8779   73.1431   -3.9514 C.2     1  UNL1        0.2231
     40 C          22.3607   73.7388   -5.2359 C.3     1  UNL1        0.0946
     41 N          22.1963   73.3209   -2.8034 N.am    1  UNL1       -0.2994
     42 O          23.9083   72.5040   -3.9512 O.2     1  UNL1       -0.2751
     43 H          21.3718   73.8326   -2.8032 H       1  UNL1        0.1496
     44 C          22.5595   71.5553    2.5422 C.3     1  UNL1        0.1693
     45 O          21.4627   71.7357    3.4403 O.3     1  UNL1       -0.3794
     46 H          21.7506   71.4079    4.3030 H       1  UNL1        0.2105
@<TRIPOS>BOND
     1    29    30    1
     2    29    28    1
     3    29    36    1
     4    30    31    1
     5    30    41    1
     6    31    32    1
     7    31    34    1
     8    32    33    1
     9    32    35    1
    10    33    44    1
    11    33    36    1
    12    44    45    1
    13    39    40    1
    14    39    41   am
    15    39    42    2
    16    41    43    1
    17    28    25    1
    18    34    37    1
    19    35    38    1
    20    45    46    1
    21    15    16   ar
    22    15    20   ar
    23    15     6    1
    24    16    17   ar
    25    16    21    2
    26    17    18   ar
    27    17    23    1
    28    18    19   ar
    29    18    22    2
    30    19    20   ar
    31     6     7    1
    32     6    11    1
    33     7     8    1
    34     7     9    1
    35     8    13    1
    36     9    10    1
    37     9    12    1
    38    10    11    1
    39    10     5    1
    40    12    14    1
    41     5     4    1
    42     4     1    1
    43     1     2    2
    44     1     3    1
    45     1    24    1
    46    24    25    1
    47    25    26    2
    48    25    27    1
@<TRIPOS>MOLECULE
UD1
 46 48 0 0 0
SMALL
GASTEIGER

@<TRIPOS>ATOM
      1 P          22.3444   71.0768   -2.3290 P.3     1  UNL1        0.2189
      2 O          22.2180   70.1504   -1.1824 O.2     1  UNL1       -0.5170
      3 O          23.5756   70.6155   -3.2585 O.3     1  UNL1       -0.4371
      4 O          22.6130   72.5686   -1.7857 O.3     1  UNL1       -0.3112
      5 C          22.4616   72.5257   -0.3660 C.3     1  UNL1        0.1811
      6 C          22.3840   74.9974    2.2439 C.3     1  UNL1        0.2383
      7 C          23.8669   74.9503    1.7978 C.3     1  UNL1        0.1895
      8 O          24.4909   76.2242    1.9623 O.3     1  UNL1       -0.3779
      9 C          23.7436   74.5844    0.2958 C.3     1  UNL1        0.1713
     10 C          22.3442   73.9500    0.1787 C.3     1  UNL1        0.1764
     11 O          21.7728   73.9235    1.4978 O.3     1  UNL1       -0.3308
     12 O          23.8374   75.7580   -0.5145 O.3     1  UNL1       -0.3794
     13 H          25.4073   76.1273    1.6687 H       1  UNL1        0.2106
     14 H          24.7100   76.1404   -0.3521 H       1  UNL1        0.2105
     15 N          22.2667   74.7581    3.6828 N.ar    1  UNL1       -0.2551
     16 C          21.5768   75.6219    4.4478 C.ar    1  UNL1        0.3323
     17 N          21.4491   75.4249    5.7734 N.ar    1  UNL1       -0.2743
     18 C          22.0234   74.3551    6.3597 C.ar    1  UNL1        0.2626
     19 C          22.7576   73.4410    5.5671 C.ar    1  UNL1        0.0795
     20 C          22.8653   73.6599    4.2391 C.ar    1  UNL1        0.0869
     21 O          21.0530   76.5915    3.9336 O.2     1  UNL1       -0.2464
     22 O          21.9126   74.1786    7.5588 O.2     1  UNL1       -0.2670
     23 H          20.9439   76.0556    6.3091 H       1  UNL1        0.1734
     24 O          20.9844   71.0557   -3.1885 O.3     1  UNL1       -0.2703
     25 P          21.0316   72.3339   -4.1648 P.3     1  UNL1        0.2208
     26 O          22.3476   72.3917   -4.8383 O.2     1  UNL1       -0.5170
     27 O          20.8110   73.6763   -3.3036 O.3     1  UNL1       -0.4371
     28 O          19.8682   72.2099   -5.2700 O.3     1  UNL1       -0.2865
     29 C          20.0991   70.9918   -5.9800 C.3     1  UNL1        0.2611
     30 C          19.7725   71.2001   -7.4598 C.3     1  UNL1        0.1582
     31 C          18.3088   71.6353   -7.5937 C.3     1  UNL1        0.1625
     32 C          17.4257   70.6145   -6.8685 C.3     1  UNL1        0.1686
     33 C          17.9275   70.4527   -5.4321 C.3     1  UNL1        0.1760
     34 O          17.9495   71.6883   -8.9755 O.3     1  UNL1       -0.3801
     35 O          16.0737   71.0766   -6.8546 O.3     1  UNL1       -0.3794
     36 O          19.2686   69.9650   -5.4420 O.3     1  UNL1       -0.3263
     37 H          17.0238   71.9657   -9.0130 H       1  UNL1        0.2105
     38 H          15.5537   70.4062   -6.3891 H       1  UNL1        0.2105
     39 C          20.2406   73.5223   -8.0278 C.2     1  UNL1        0.2231
     40 C          21.1393   74.5899   -8.5976 C.3     1  UNL1        0.0946
     41 N          20.6454   72.2377   -8.0128 N.am    1  UNL1       -0.2994
     42 O          19.1524   73.8196   -7.5832 O.2     1  UNL1       -0.2751
     43 H          21.5161   71.9995   -8.3688 H       1  UNL1        0.1496
     44 C          17.0320   69.4591   -4.6891 C.3     1  UNL1        0.1693
     45 O          16.3640   68.6205   -5.6340 O.3     1  UNL1       -0.3794
     46 H          15.8115   68.0113   -5.1258 H       1  UNL1        0.2105
@<TRIPOS>BOND
     1    29    30    1
     2    29    28    1
     3    29    36    1
     4    30    31    1
     5    30    41    1
     6    31    32    1
     7    31    34    1
     8    32    33    1
     9    32    35    1
    10    33    44    1
    11    33    36    1
    12    44    45    1
    13    39    40    1
    14    39    41   am
    15    39    42    2
    16    41    43    1
    17    28    25    1
    18    34    37    1
    19    35    38    1
    20    45    46    1
    21    15    16   ar
    22    15    20   ar
    23    15     6    1
    24    16    17   ar
    25    16    21    2
    26    17    18   ar
    27    17    23    1
    28    18    19   ar
    29    18    22    2
    30    19    20   ar
    31     6     7    1
    32     6    11    1
    33     7     8    1
    34     7     9    1
    35     8    13    1
    36     9    10    1
    37     9    12    1
    38    10    11    1
    39    10     5    1
    40    12    14    1
    41     5     4    1
    42     4     1    1
    43     1     2    2
    44     1     3    1
    45     1    24    1
    46    24    25    1
    47    25    26    2
    48    25    27    1
@<TRIPOS>MOLECULE
UD1
 46 48 0 0 0
SMALL
GASTEIGER

@<TRIPOS>ATOM
      1 P          22.4770   74.5945   -8.0529 P.3     1  UNL1        0.2189
      2 O          21.6342   75.6880   -8.5844 O.2     1  UNL1       -0.5170
      3 O          23.7680   74.4048   -8.9963 O.3     1  UNL1       -0.4371
      4 O          21.6272   73.2270   -8.0266 O.3     1  UNL1       -0.3112
      5 C          21.3370   72.8939   -9.3849 C.3     1  UNL1        0.1811
      6 C          18.5321   71.1470   -7.9679 C.3     1  UNL1        0.2383
      7 C          18.0545   72.6160   -8.0873 C.3     1  UNL1        0.1895
      8 O          16.6451   72.6788   -8.3085 O.3     1  UNL1       -0.3779
      9 C          18.8330   73.1112   -9.3338 C.3     1  UNL1        0.1713
     10 C          20.0143   72.1289   -9.4520 C.3     1  UNL1        0.1764
     11 O          19.9231   71.2123   -8.3480 O.3     1  UNL1       -0.3308
     12 O          18.0052   73.0506  -10.4973 O.3     1  UNL1       -0.3794
     13 H          16.4131   73.6156   -8.3729 H       1  UNL1        0.2106
     14 H          17.2554   73.6392  -10.3376 H       1  UNL1        0.2105
     15 N          18.3949   70.6664   -6.5925 N.ar    1  UNL1       -0.2551
     16 C          17.2291   70.1348   -6.1856 C.ar    1  UNL1        0.3323
     17 N          17.0758   69.6812   -4.9274 N.ar    1  UNL1       -0.2743
     18 C          18.0938   69.7621   -4.0472 C.ar    1  UNL1        0.2626
     19 C          19.3248   70.3250   -4.4605 C.ar    1  UNL1        0.0795
     20 C          19.4530   70.7674   -5.7299 C.ar    1  UNL1        0.0869
     21 O          16.3016   70.0549   -6.9679 O.2     1  UNL1       -0.2464
     22 O          17.9548   69.3567   -2.9080 O.2     1  UNL1       -0.2670
     23 H          16.2293   69.2964   -4.6524 H       1  UNL1        0.1734
     24 O          22.9516   74.9600   -6.5595 O.3     1  UNL1       -0.2703
     25 P          22.1636   73.9695   -5.5659 P.3     1  UNL1        0.2208
     26 O          22.5387   72.5699   -5.8649 O.2     1  UNL1       -0.5170
     27 O          20.5772   74.1543   -5.7694 O.3     1  UNL1       -0.4371
     28 O          22.5515   74.3152   -4.0425 O.3     1  UNL1       -0.2865
     29 C          23.5669   73.3887   -3.6530 C.3     1  UNL1        0.2611
     30 C          23.4641   73.1297   -2.1489 C.3     1  UNL1        0.1582
     31 C          23.6263   74.4569   -1.3994 C.3     1  UNL1        0.1625
     32 C          24.9274   75.1234   -1.8588 C.3     1  UNL1        0.1686
     33 C          24.9184   75.2348   -3.3849 C.3     1  UNL1        0.1760
     34 O          23.6818   74.2092    0.0066 O.3     1  UNL1       -0.3801
     35 O          25.0253   76.4276   -1.2836 O.3     1  UNL1       -0.3794
     36 O          24.8484   73.9319   -3.9630 O.3     1  UNL1       -0.3263
     37 H          23.7835   75.0688    0.4379 H       1  UNL1        0.2105
     38 H          25.8562   76.8107   -1.5987 H       1  UNL1        0.2105
     39 C          22.0661   71.2690   -1.4293 C.2     1  UNL1        0.2231
     40 C          20.7191   70.6712   -1.1121 C.3     1  UNL1        0.0946
     41 N          22.1559   72.5486   -1.8401 N.am    1  UNL1       -0.2994
     42 O          23.0693   70.5977   -1.3153 O.2     1  UNL1       -0.2751
     43 H          21.3531   73.0860   -1.9316 H       1  UNL1        0.1496
     44 C          26.1996   75.9287   -3.8519 C.3     1  UNL1        0.1693
     45 O          27.2932   75.0119   -3.7762 O.3     1  UNL1       -0.3794
     46 H          28.0787   75.4877   -4.0780 H       1  UNL1        0.2105
@<TRIPOS>BOND
     1    29    30    1
     2    29    28    1
     3    29    36    1
     4    30    31    1
     5    30    41    1
     6    31    32    1
     7    31    34    1
     8    32    33    1
     9    32    35    1
    10    33    44    1
    11    33    36    1
    12    44    45    1
    13    39    40    1
    14    39    41   am
    15    39    42    2
    16    41    43    1
    17    28    25    1
    18    34    37    1
    19    35    38    1
    20    45    46    1
    21    15    16   ar
    22    15    20   ar
    23    15     6    1
    24    16    17   ar
    25    16    21    2
    26    17    18   ar
    27    17    23    1
    28    18    19   ar
    29    18    22    2
    30    19    20   ar
    31     6     7    1
    32     6    11    1
    33     7     8    1
    34     7     9    1
    35     8    13    1
    36     9    10    1
    37     9    12    1
    38    10    11    1
    39    10     5    1
    40    12    14    1
    41     5     4    1
    42     4     1    1
    43     1     2    2
    44     1     3    1
    45     1    24    1
    46    24    25    1
    47    25    26    2
    48    25    27    1
@<TRIPOS>MOLECULE
UD1
 46 48 0 0 0
SMALL
GASTEIGER

@<TRIPOS>ATOM
      1 P          20.8348   70.5562   -2.4527 P.3     1  UNL1        0.2189
      2 O          22.2182   70.1441   -2.7773 O.2     1  UNL1       -0.5170
      3 O          19.8819   69.2587   -2.4206 O.3     1  UNL1       -0.4371
      4 O          20.3043   71.5828   -3.5740 O.3     1  UNL1       -0.3112
      5 C          19.8438   70.7943   -4.6725 C.3     1  UNL1        0.1811
      6 C          16.8650   71.7943   -6.4200 C.3     1  UNL1        0.2383
      7 C          17.0507   70.3018   -6.7920 C.3     1  UNL1        0.1895
      8 O          15.7902   69.6720   -7.0234 O.3     1  UNL1       -0.3779
      9 C          17.7291   69.7311   -5.5195 C.3     1  UNL1        0.1713
     10 C          18.3326   70.9696   -4.8294 C.3     1  UNL1        0.1764
     11 O          18.0565   72.1053   -5.6668 O.3     1  UNL1       -0.3308
     12 O          16.7617   69.1021   -4.6761 O.3     1  UNL1       -0.3794
     13 H          15.9750   68.7501   -7.2499 H       1  UNL1        0.2106
     14 H          16.3789   68.3747   -5.1845 H       1  UNL1        0.2105
     15 N          16.7838   72.6232   -7.6231 N.ar    1  UNL1       -0.2551
     16 C          17.8355   72.6910   -8.4578 C.ar    1  UNL1        0.3323
     17 N          17.7875   73.4423   -9.5738 N.ar    1  UNL1       -0.2743
     18 C          16.6789   74.1508   -9.8687 C.ar    1  UNL1        0.2626
     19 C          15.5666   74.0933   -8.9956 C.ar    1  UNL1        0.0795
     20 C          15.6398   73.3275   -7.8859 C.ar    1  UNL1        0.0869
     21 O          18.8424   72.0576   -8.2055 O.2     1  UNL1       -0.2464
     22 O          16.6362   74.8342  -10.8750 O.2     1  UNL1       -0.2670
     23 H          18.5538   73.4758  -10.1670 H       1  UNL1        0.1734
     24 O          20.8127   71.2753   -1.0135 O.3     1  UNL1       -0.2703
     25 P          22.0824   70.7192   -0.1964 P.3     1  UNL1        0.2208
     26 O          23.2123   70.5046   -1.1270 O.2     1  UNL1       -0.5170
     27 O          21.6979   69.3245    0.5102 O.3     1  UNL1       -0.4371
     28 O          22.5091   71.7889    0.9279 O.3     1  UNL1       -0.2865
     29 C          21.3091   72.4248    1.3716 C.3     1  UNL1        0.2611
     30 C          21.3935   73.9237    1.0780 C.3     1  UNL1        0.1582
     31 C          22.6138   74.5077    1.7988 C.3     1  UNL1        0.1625
     32 C          22.5295   74.1378    3.2835 C.3     1  UNL1        0.1686
     33 C          22.3624   72.6222    3.4108 C.3     1  UNL1        0.1760
     34 O          22.6195   75.9293    1.6556 O.3     1  UNL1       -0.3801
     35 O          23.7279   74.5453    3.9463 O.3     1  UNL1       -0.3794
     36 O          21.1522   72.2153    2.7734 O.3     1  UNL1       -0.3263
     37 H          23.4018   76.2540    2.1225 H       1  UNL1        0.2105
     38 H          23.6330   74.2933    4.8758 H       1  UNL1        0.2105
     39 C          22.7514   74.2680   -0.9150 C.2     1  UNL1        0.2231
     40 C          22.8905   74.4844   -2.4003 C.3     1  UNL1        0.0946
     41 N          21.5293   74.1334   -0.3649 N.am    1  UNL1       -0.2994
     42 O          23.7398   74.2159   -0.2147 O.2     1  UNL1       -0.2751
     43 H          20.7381   74.1753   -0.9251 H       1  UNL1        0.1496
     44 C          22.3098   72.2387    4.8911 C.3     1  UNL1        0.1693
     45 O          21.4549   73.1468    5.5887 O.3     1  UNL1       -0.3794
     46 H          21.4499   72.8706    6.5152 H       1  UNL1        0.2105
@<TRIPOS>BOND
     1    29    30    1
     2    29    28    1
     3    29    36    1
     4    30    31    1
     5    30    41    1
     6    31    32    1
     7    31    34    1
     8    32    33    1
     9    32    35    1
    10    33    44    1
    11    33    36    1
    12    44    45    1
    13    39    40    1
    14    39    41   am
    15    39    42    2
    16    41    43    1
    17    28    25    1
    18    34    37    1
    19    35    38    1
    20    45    46    1
    21    15    16   ar
    22    15    20   ar
    23    15     6    1
    24    16    17   ar
    25    16    21    2
    26    17    18   ar
    27    17    23    1
    28    18    19   ar
    29    18    22    2
    30    19    20   ar
    31     6     7    1
    32     6    11    1
    33     7     8    1
    34     7     9    1
    35     8    13    1
    36     9    10    1
    37     9    12    1
    38    10    11    1
    39    10     5    1
    40    12    14    1
    41     5     4    1
    42     4     1    1
    43     1     2    2
    44     1     3    1
    45     1    24    1
    46    24    25    1
    47    25    26    2
    48    25    27    1
@<TRIPOS>MOLECULE
UD1
 46 48 0 0 0
SMALL
GASTEIGER

@<TRIPOS>ATOM
      1 P          22.2939   71.9026    2.2196 P.3     1  UNL1        0.2189
      2 O          20.8581   71.7195    2.5258 O.2     1  UNL1       -0.5170
      3 O          23.1031   70.5708    2.6246 O.3     1  UNL1       -0.4371
      4 O          22.8657   73.1526    3.0582 O.3     1  UNL1       -0.3112
      5 C          21.7348   73.8906    3.5239 C.3     1  UNL1        0.1811
      6 C          22.0638   74.6662    7.0192 C.3     1  UNL1        0.2383
      7 C          20.6936   75.2662    6.6158 C.3     1  UNL1        0.1895
      8 O          19.7831   75.2464    7.7157 O.3     1  UNL1       -0.3779
      9 C          20.2307   74.2974    5.4967 C.3     1  UNL1        0.1713
     10 C          21.5338   73.6292    5.0174 C.3     1  UNL1        0.1764
     11 O          22.6152   74.2107    5.7654 O.3     1  UNL1       -0.3308
     12 O          19.3250   73.3238    6.0208 O.3     1  UNL1       -0.3794
     13 H          18.9541   75.6319    7.4001 H       1  UNL1        0.2106
     14 H          18.5593   73.8077    6.3579 H       1  UNL1        0.2105
     15 N          22.9219   75.6883    7.6195 N.ar    1  UNL1       -0.2551
     16 C          22.9988   75.7917    8.9577 C.ar    1  UNL1        0.3323
     17 N          23.7830   76.7199    9.5373 N.ar    1  UNL1       -0.2743
     18 C          24.5014   77.5721    8.7787 C.ar    1  UNL1        0.2626
     19 C          24.4251   77.4782    7.3686 C.ar    1  UNL1        0.0795
     20 C          23.6348   76.5345    6.8136 C.ar    1  UNL1        0.0869
     21 O          22.3570   75.0302    9.6554 O.2     1  UNL1       -0.2464
     22 O          25.2070   78.4148    9.3016 O.2     1  UNL1       -0.2670
     23 H          23.8301   76.7771   10.5041 H       1  UNL1        0.1734
     24 O          22.4754   72.1842    0.6459 O.3     1  UNL1       -0.2703
     25 P          22.1890   70.7936   -0.1113 P.3     1  UNL1        0.2208
     26 O          21.6525   69.8083    0.8531 O.2     1  UNL1       -0.5170
     27 O          23.5599   70.2335   -0.7430 O.3     1  UNL1       -0.4371
     28 O          21.1162   71.0324   -1.2872 O.3     1  UNL1       -0.2865
     29 C          21.7609   70.6836   -2.5135 C.3     1  UNL1        0.2611
     30 C          21.5939   71.8277   -3.5151 C.3     1  UNL1        0.1582
     31 C          20.0992   72.0806   -3.7424 C.3     1  UNL1        0.1625
     32 C          19.4342   70.7599   -4.1443 C.3     1  UNL1        0.1686
     33 C          19.7617   69.6970   -3.0934 C.3     1  UNL1        0.1760
     34 O          19.9295   73.0427   -4.7850 O.3     1  UNL1       -0.3801
     35 O          18.0188   70.9406   -4.2182 O.3     1  UNL1       -0.3794
     36 O          21.1732   69.4943   -3.0364 O.3     1  UNL1       -0.3263
     37 H          18.9772   73.1715   -4.8940 H       1  UNL1        0.2105
     38 H          17.6407   70.0869   -4.4727 H       1  UNL1        0.2105
     39 C          23.4010   73.4609   -3.4786 C.2     1  UNL1        0.2231
     40 C          24.0466   74.7081   -2.9310 C.3     1  UNL1        0.0946
     41 N          22.2212   73.0395   -2.9838 N.am    1  UNL1       -0.2994
     42 O          23.9440   72.8360   -4.3646 O.2     1  UNL1       -0.2751
     43 H          21.7866   73.5392   -2.2746 H       1  UNL1        0.1496
     44 C          19.0752   68.3821   -3.4686 C.3     1  UNL1        0.1693
     45 O          17.7490   68.6509   -3.9282 O.3     1  UNL1       -0.3794
     46 H          17.3527   67.7983   -4.1532 H       1  UNL1        0.2105
@<TRIPOS>BOND
     1    29    30    1
     2    29    28    1
     3    29    36    1
     4    30    31    1
     5    30    41    1
     6    31    32    1
     7    31    34    1
     8    32    33    1
     9    32    35    1
    10    33    44    1
    11    33    36    1
    12    44    45    1
    13    39    40    1
    14    39    41   am
    15    39    42    2
    16    41    43    1
    17    28    25    1
    18    34    37    1
    19    35    38    1
    20    45    46    1
    21    15    16   ar
    22    15    20   ar
    23    15     6    1
    24    16    17   ar
    25    16    21    2
    26    17    18   ar
    27    17    23    1
    28    18    19   ar
    29    18    22    2
    30    19    20   ar
    31     6     7    1
    32     6    11    1
    33     7     8    1
    34     7     9    1
    35     8    13    1
    36     9    10    1
    37     9    12    1
    38    10    11    1
    39    10     5    1
    40    12    14    1
    41     5     4    1
    42     4     1    1
    43     1     2    2
    44     1     3    1
    45     1    24    1
    46    24    25    1
    47    25    26    2
    48    25    27    1
@<TRIPOS>MOLECULE
UD1
 46 48 0 0 0
SMALL
GASTEIGER

@<TRIPOS>ATOM
      1 P          22.2697   71.6394   -3.1135 P.3     1  UNL1        0.2189
      2 O          22.7138   70.3055   -2.6526 O.2     1  UNL1       -0.5170
      3 O          23.5460   72.4906   -3.6024 O.3     1  UNL1       -0.4371
      4 O          21.5437   72.4112   -1.9011 O.3     1  UNL1       -0.3112
      5 C          22.5509   73.1718   -1.2324 C.3     1  UNL1        0.1811
      6 C          22.6513   73.3026    2.3593 C.3     1  UNL1        0.2383
      7 C          21.2369   72.7630    2.0299 C.3     1  UNL1        0.1895
      8 O          20.7717   71.8873    3.0575 O.3     1  UNL1       -0.3779
      9 C          21.4839   71.9860    0.7106 C.3     1  UNL1        0.1713
     10 C          22.7914   72.5881    0.1607 C.3     1  UNL1        0.1764
     11 O          23.1977   73.6303    1.0640 O.3     1  UNL1       -0.3308
     12 O          21.6403   70.5899    0.9740 O.3     1  UNL1       -0.3794
     13 H          19.8907   71.5882    2.7932 H       1  UNL1        0.2106
     14 H          20.8129   70.2861    1.3705 H       1  UNL1        0.2105
     15 N          22.5686   74.4964    3.2016 N.ar    1  UNL1       -0.2551
     16 C          22.6107   74.3720    4.5396 C.ar    1  UNL1        0.3323
     17 N          22.5406   75.4530    5.3388 N.ar    1  UNL1       -0.2743
     18 C          22.4170   76.6852    4.8056 C.ar    1  UNL1        0.2626
     19 C          22.3655   76.8301    3.3988 C.ar    1  UNL1        0.0795
     20 C          22.4432   75.7294    2.6205 C.ar    1  UNL1        0.0869
     21 O          22.7220   73.2672    5.0354 O.2     1  UNL1       -0.2464
     22 O          22.3488   77.6629    5.5274 O.2     1  UNL1       -0.2670
     23 H          22.5773   75.3451    6.3017 H       1  UNL1        0.1734
     24 O          21.2372   71.4686   -4.3356 O.3     1  UNL1       -0.2703
     25 P          21.3139   72.8227   -5.2016 P.3     1  UNL1        0.2208
     26 O          22.6297   72.9048   -5.8730 O.2     1  UNL1       -0.5170
     27 O          21.1277   74.0931   -4.2303 O.3     1  UNL1       -0.4371
     28 O          20.1458   72.8199   -6.3089 O.3     1  UNL1       -0.2865
     29 C          20.0741   71.4925   -6.8324 C.3     1  UNL1        0.2611
     30 C          20.0900   71.5508   -8.3609 C.3     1  UNL1        0.1582
     31 C          18.8997   72.3877   -8.8430 C.3     1  UNL1        0.1625
     32 C          17.6181   71.8183   -8.2255 C.3     1  UNL1        0.1686
     33 C          17.7875   71.7426   -6.7067 C.3     1  UNL1        0.1760
     34 O          18.8170   72.3262  -10.2680 O.3     1  UNL1       -0.3801
     35 O          16.5154   72.6697   -8.5430 O.3     1  UNL1       -0.3794
     36 O          18.8710   70.8712   -6.3853 O.3     1  UNL1       -0.3263
     37 H          18.0569   72.8651  -10.5273 H       1  UNL1        0.2105
     38 H          15.7312   72.2756   -8.1353 H       1  UNL1        0.2105
     39 C          21.3951   73.4946   -9.0338 C.2     1  UNL1        0.2231
     40 C          22.6805   74.1281   -9.5014 C.3     1  UNL1        0.0946
     41 N          21.3386   72.1668   -8.8147 N.am    1  UNL1       -0.2994
     42 O          20.4111   74.1803   -8.8554 O.2     1  UNL1       -0.2751
     43 H          22.1259   71.6179   -8.9576 H       1  UNL1        0.1496
     44 C          16.5006   71.2054   -6.0773 C.3     1  UNL1        0.1693
     45 O          16.5899   69.7850   -5.9482 O.3     1  UNL1       -0.3794
     46 H          15.7611   69.4877   -5.5490 H       1  UNL1        0.2105
@<TRIPOS>BOND
     1    29    30    1
     2    29    28    1
     3    29    36    1
     4    30    31    1
     5    30    41    1
     6    31    32    1
     7    31    34    1
     8    32    33    1
     9    32    35    1
    10    33    44    1
    11    33    36    1
    12    44    45    1
    13    39    40    1
    14    39    41   am
    15    39    42    2
    16    41    43    1
    17    28    25    1
    18    34    37    1
    19    35    38    1
    20    45    46    1
    21    15    16   ar
    22    15    20   ar
    23    15     6    1
    24    16    17   ar
    25    16    21    2
    26    17    18   ar
    27    17    23    1
    28    18    19   ar
    29    18    22    2
    30    19    20   ar
    31     6     7    1
    32     6    11    1
    33     7     8    1
    34     7     9    1
    35     8    13    1
    36     9    10    1
    37     9    12    1
    38    10    11    1
    39    10     5    1
    40    12    14    1
    41     5     4    1
    42     4     1    1
    43     1     2    2
    44     1     3    1
    45     1    24    1
    46    24    25    1
    47    25    26    2
    48    25    27    1
@<TRIPOS>MOLECULE
UD1
 46 48 0 0 0
SMALL
GASTEIGER

@<TRIPOS>ATOM
      1 P          18.4345   73.2550   -2.5897 P.3     1  UNL1        0.2189
      2 O          18.9831   74.5315   -3.0978 O.2     1  UNL1       -0.5170
      3 O          16.9640   73.5061   -1.9837 O.3     1  UNL1       -0.4371
      4 O          19.3982   72.6787   -1.4356 O.3     1  UNL1       -0.3112
      5 C          20.3603   73.6962   -1.1535 C.3     1  UNL1        0.1811
      6 C          22.6012   72.6089    1.4394 C.3     1  UNL1        0.2383
      7 C          21.7273   71.3663    1.1354 C.3     1  UNL1        0.1895
      8 O          22.4583   70.1602    1.3591 O.3     1  UNL1       -0.3779
      9 C          21.4120   71.5508   -0.3719 C.3     1  UNL1        0.1713
     10 C          21.6422   73.0539   -0.6212 C.3     1  UNL1        0.1764
     11 O          22.0006   73.6484    0.6379 O.3     1  UNL1       -0.3308
     12 O          22.2995   70.7633   -1.1687 O.3     1  UNL1       -0.3794
     13 H          21.8606   69.4281    1.1533 H       1  UNL1        0.2106
     14 H          22.1496   69.8403   -0.9243 H       1  UNL1        0.2105
     15 N          22.5395   72.9522    2.8606 N.ar    1  UNL1       -0.2551
     16 C          21.4347   72.6609    3.5690 C.ar    1  UNL1        0.3323
     17 N          21.3516   72.9616    4.8785 N.ar    1  UNL1       -0.2743
     18 C          22.3794   73.5723    5.5019 C.ar    1  UNL1        0.2626
     19 C          23.5461   73.8902    4.7667 C.ar    1  UNL1        0.0795
     20 C          23.6048   73.5725    3.4556 C.ar    1  UNL1        0.0869
     21 O          20.4994   72.1100    3.0209 O.2     1  UNL1       -0.2464
     22 O          22.3035   73.8490    6.6848 O.2     1  UNL1       -0.2670
     23 H          20.5489   72.7398    5.3752 H       1  UNL1        0.1734
     24 O          18.3451   72.1920   -3.7943 O.3     1  UNL1       -0.2703
     25 P          17.2257   72.7373   -4.8134 P.3     1  UNL1        0.2208
     26 O          17.0996   74.2043   -4.6687 O.2     1  UNL1       -0.5170
     27 O          15.8119   72.0425   -4.4807 O.3     1  UNL1       -0.4371
     28 O          17.6542   72.3820   -6.3236 O.3     1  UNL1       -0.2865
     29 C          18.2450   73.5602   -6.8749 C.3     1  UNL1        0.2611
     30 C          18.0998   73.5330   -8.3975 C.3     1  UNL1        0.1582
     31 C          18.7870   72.2766   -8.9441 C.3     1  UNL1        0.1625
     32 C          20.2286   72.2416   -8.4258 C.3     1  UNL1        0.1686
     33 C          20.2130   72.3633   -6.9006 C.3     1  UNL1        0.1760
     34 O          18.7890   72.3148  -10.3723 O.3     1  UNL1       -0.3801
     35 O          20.8420   71.0071   -8.8019 O.3     1  UNL1       -0.3794
     36 O          19.6258   73.6077   -6.5221 O.3     1  UNL1       -0.3263
     37 H          19.2292   71.5078  -10.6728 H       1  UNL1        0.2105
     38 H          21.7455   71.0268   -8.4558 H       1  UNL1        0.2105
     39 C          16.1190   74.5736   -9.3606 C.2     1  UNL1        0.2231
     40 C          14.6569   74.5494   -9.7269 C.3     1  UNL1        0.0946
     41 N          16.6797   73.5098   -8.7539 N.am    1  UNL1       -0.2994
     42 O          16.7908   75.5513   -9.6116 O.2     1  UNL1       -0.2751
     43 H          16.1422   72.7273   -8.5527 H       1  UNL1        0.1496
     44 C          21.6466   72.2968   -6.3701 C.3     1  UNL1        0.1693
     45 O          22.5576   72.6498   -7.4129 O.3     1  UNL1       -0.3794
     46 H          23.4470   72.5950   -7.0379 H       1  UNL1        0.2105
@<TRIPOS>BOND
     1    29    30    1
     2    29    28    1
     3    29    36    1
     4    30    31    1
     5    30    41    1
     6    31    32    1
     7    31    34    1
     8    32    33    1
     9    32    35    1
    10    33    44    1
    11    33    36    1
    12    44    45    1
    13    39    40    1
    14    39    41   am
    15    39    42    2
    16    41    43    1
    17    28    25    1
    18    34    37    1
    19    35    38    1
    20    45    46    1
    21    15    16   ar
    22    15    20   ar
    23    15     6    1
    24    16    17   ar
    25    16    21    2
    26    17    18   ar
    27    17    23    1
    28    18    19   ar
    29    18    22    2
    30    19    20   ar
    31     6     7    1
    32     6    11    1
    33     7     8    1
    34     7     9    1
    35     8    13    1
    36     9    10    1
    37     9    12    1
    38    10    11    1
    39    10     5    1
    40    12    14    1
    41     5     4    1
    42     4     1    1
    43     1     2    2
    44     1     3    1
    45     1    24    1
    46    24    25    1
    47    25    26    2
    48    25    27    1
@<TRIPOS>MOLECULE
UD1
 46 48 0 0 0
SMALL
GASTEIGER

@<TRIPOS>ATOM
      1 P          19.6957   69.9617   -2.8324 P.3     1  UNL1        0.2189
      2 O          20.8367   69.0304   -2.9714 O.2     1  UNL1       -0.5170
      3 O          18.4513   69.1899   -2.1628 O.3     1  UNL1       -0.4371
      4 O          19.2684   70.5067   -4.2861 O.3     1  UNL1       -0.3112
      5 C          17.9622   69.9938   -4.5529 C.3     1  UNL1        0.1811
      6 C          16.4131   72.1292   -6.9957 C.3     1  UNL1        0.2383
      7 C          17.8959   72.5774   -6.9730 C.3     1  UNL1        0.1895
      8 O          18.3033   73.0614   -8.2533 O.3     1  UNL1       -0.3779
      9 C          18.6297   71.2572   -6.6213 C.3     1  UNL1        0.1713
     10 C          17.5393   70.3849   -5.9698 C.3     1  UNL1        0.1764
     11 O          16.3344   71.1679   -5.9218 O.3     1  UNL1       -0.3308
     12 O          19.1360   70.6357   -7.8046 O.3     1  UNL1       -0.3794
     13 H          19.2308   73.3233   -8.1716 H       1  UNL1        0.2106
     14 H          19.7668   71.2541   -8.1968 H       1  UNL1        0.2105
     15 N          15.5238   73.2629   -6.7398 N.ar    1  UNL1       -0.2551
     16 C          14.9985   73.9441   -7.7729 C.ar    1  UNL1        0.3323
     17 N          14.1745   74.9886   -7.5671 N.ar    1  UNL1       -0.2743
     18 C          13.8686   75.3758   -6.3124 C.ar    1  UNL1        0.2626
     19 C          14.4194   74.6712   -5.2156 C.ar    1  UNL1        0.0795
     20 C          15.2388   73.6240   -5.4505 C.ar    1  UNL1        0.0869
     21 O          15.2649   73.6069   -8.9104 O.2     1  UNL1       -0.2464
     22 O          13.1274   76.3230   -6.1252 O.2     1  UNL1       -0.2670
     23 H          13.8008   75.4656   -8.3241 H       1  UNL1        0.1734
     24 O          20.1247   71.2007   -1.8998 O.3     1  UNL1       -0.2703
     25 P          21.5159   70.7959   -1.1999 P.3     1  UNL1        0.2208
     26 O          22.4773   70.3526   -2.2335 O.2     1  UNL1       -0.5170
     27 O          21.2629   69.5980   -0.1544 O.3     1  UNL1       -0.4371
     28 O          22.1162   72.0693   -0.4198 O.3     1  UNL1       -0.2865
     29 C          21.0093   72.7538    0.1697 C.3     1  UNL1        0.2611
     30 C          21.1865   74.2608   -0.0234 C.3     1  UNL1        0.1582
     31 C          22.5029   74.6984    0.6288 C.3     1  UNL1        0.1625
     32 C          22.5102   74.2224    2.0853 C.3     1  UNL1        0.1686
     33 C          22.2361   72.7174    2.1191 C.3     1  UNL1        0.1760
     34 O          22.6080   76.1227    0.5865 O.3     1  UNL1       -0.3801
     35 O          23.7864   74.4904    2.6693 O.3     1  UNL1       -0.3794
     36 O          20.9503   72.4488    1.5614 O.3     1  UNL1       -0.3263
     37 H          23.4483   76.3534    1.0058 H       1  UNL1        0.2105
     38 H          23.7475   74.1751    3.5834 H       1  UNL1        0.2105
     39 C          22.3980   74.6066   -2.1084 C.2     1  UNL1        0.2231
     40 C          22.4332   74.9261   -3.5811 C.3     1  UNL1        0.0946
     41 N          21.2211   74.5707   -1.4542 N.am    1  UNL1       -0.2994
     42 O          23.4296   74.3825   -1.5118 O.2     1  UNL1       -0.2751
     43 H          20.3955   74.7502   -1.9314 H       1  UNL1        0.1496
     44 C          22.2735   72.2259    3.5676 C.3     1  UNL1        0.1693
     45 O          21.0743   72.6216    4.2364 O.3     1  UNL1       -0.3794
     46 H          21.1384   72.2933    5.1435 H       1  UNL1        0.2105
@<TRIPOS>BOND
     1    29    30    1
     2    29    28    1
     3    29    36    1
     4    30    31    1
     5    30    41    1
     6    31    32    1
     7    31    34    1
     8    32    33    1
     9    32    35    1
    10    33    44    1
    11    33    36    1
    12    44    45    1
    13    39    40    1
    14    39    41   am
    15    39    42    2
    16    41    43    1
    17    28    25    1
    18    34    37    1
    19    35    38    1
    20    45    46    1
    21    15    16   ar
    22    15    20   ar
    23    15     6    1
    24    16    17   ar
    25    16    21    2
    26    17    18   ar
    27    17    23    1
    28    18    19   ar
    29    18    22    2
    30    19    20   ar
    31     6     7    1
    32     6    11    1
    33     7     8    1
    34     7     9    1
    35     8    13    1
    36     9    10    1
    37     9    12    1
    38    10    11    1
    39    10     5    1
    40    12    14    1
    41     5     4    1
    42     4     1    1
    43     1     2    2
    44     1     3    1
    45     1    24    1
    46    24    25    1
    47    25    26    2
    48    25    27    1
@<TRIPOS>MOLECULE
UD1
 46 48 0 0 0
SMALL
GASTEIGER

@<TRIPOS>ATOM
      1 P          22.1624   70.7735   -0.1291 P.3     1  UNL1        0.2189
      2 O          23.2890   70.5258   -1.0555 O.2     1  UNL1       -0.5170
      3 O          21.6912   69.3807    0.5273 O.3     1  UNL1       -0.4371
      4 O          20.9342   71.4256   -0.9408 O.3     1  UNL1       -0.3112
      5 C          20.9208   70.8151   -2.2321 C.3     1  UNL1        0.1811
      6 C          18.3744   70.5798   -4.7596 C.3     1  UNL1        0.2383
      7 C          18.7083   69.1086   -4.4068 C.3     1  UNL1        0.1895
      8 O          17.5637   68.2709   -4.5722 O.3     1  UNL1       -0.3779
      9 C          19.1051   69.2144   -2.9113 C.3     1  UNL1        0.1713
     10 C          19.4783   70.6980   -2.7270 C.3     1  UNL1        0.1764
     11 O          19.3479   71.3363   -4.0088 O.3     1  UNL1       -0.3308
     12 O          18.0013   68.8618   -2.0746 O.3     1  UNL1       -0.3794
     13 H          17.8374   67.3732   -4.3383 H       1  UNL1        0.2106
     14 H          17.7779   67.9440   -2.2790 H       1  UNL1        0.2105
     15 N          18.5309   70.8181   -6.1949 N.ar    1  UNL1       -0.2551
     16 C          17.4781   70.6584   -7.0155 C.ar    1  UNL1        0.3323
     17 N          17.5920   70.8745   -8.3393 N.ar    1  UNL1       -0.2743
     18 C          18.7750   71.2481   -8.8674 C.ar    1  UNL1        0.2626
     19 C          19.8931   71.4141   -8.0158 C.ar    1  UNL1        0.0795
     20 C          19.7495   71.1960   -6.6910 C.ar    1  UNL1        0.0869
     21 O          16.4045   70.3219   -6.5542 O.2     1  UNL1       -0.2464
     22 O          18.8804   71.4391  -10.0649 O.2     1  UNL1       -0.2670
     23 H          16.8210   70.7592   -8.9158 H       1  UNL1        0.1734
     24 O          22.6342   71.7826    1.0320 O.3     1  UNL1       -0.2703
     25 P          22.1589   73.2549    0.5896 P.3     1  UNL1        0.2208
     26 O          22.9122   74.2686    1.3602 O.2     1  UNL1       -0.5170
     27 O          20.5842   73.4214    0.8810 O.3     1  UNL1       -0.4371
     28 O          22.4369   73.4603   -0.9823 O.3     1  UNL1       -0.2865
     29 C          22.0530   74.7993   -1.2997 C.3     1  UNL1        0.2611
     30 C          20.9486   74.7708   -2.3577 C.3     1  UNL1        0.1582
     31 C          21.4679   74.0468   -3.6050 C.3     1  UNL1        0.1625
     32 C          22.7771   74.7093   -4.0468 C.3     1  UNL1        0.1686
     33 C          23.7449   74.7397   -2.8619 C.3     1  UNL1        0.1760
     34 O          20.5010   74.1438   -4.6524 O.3     1  UNL1       -0.3801
     35 O          23.3542   73.9600   -5.1179 O.3     1  UNL1       -0.3794
     36 O          23.1832   75.5104   -1.8003 O.3     1  UNL1       -0.3263
     37 H          20.8676   73.6760   -5.4153 H       1  UNL1        0.2105
     38 H          24.1747   74.4103   -5.3640 H       1  UNL1        0.2105
     39 C          18.5403   74.5056   -2.1042 C.2     1  UNL1        0.2231
     40 C          17.3395   73.7753   -1.5591 C.3     1  UNL1        0.0946
     41 N          19.7818   74.0614   -1.8289 N.am    1  UNL1       -0.2994
     42 O          18.3890   75.4938   -2.7903 O.2     1  UNL1       -0.2751
     43 H          19.9031   73.2707   -1.2796 H       1  UNL1        0.1496
     44 C          25.0678   75.3703   -3.3016 C.3     1  UNL1        0.1693
     45 O          25.8380   74.4075   -4.0240 O.3     1  UNL1       -0.3794
     46 H          26.6612   74.8441   -4.2818 H       1  UNL1        0.2105
@<TRIPOS>BOND
     1    29    30    1
     2    29    28    1
     3    29    36    1
     4    30    31    1
     5    30    41    1
     6    31    32    1
     7    31    34    1
     8    32    33    1
     9    32    35    1
    10    33    44    1
    11    33    36    1
    12    44    45    1
    13    39    40    1
    14    39    41   am
    15    39    42    2
    16    41    43    1
    17    28    25    1
    18    34    37    1
    19    35    38    1
    20    45    46    1
    21    15    16   ar
    22    15    20   ar
    23    15     6    1
    24    16    17   ar
    25    16    21    2
    26    17    18   ar
    27    17    23    1
    28    18    19   ar
    29    18    22    2
    30    19    20   ar
    31     6     7    1
    32     6    11    1
    33     7     8    1
    34     7     9    1
    35     8    13    1
    36     9    10    1
    37     9    12    1
    38    10    11    1
    39    10     5    1
    40    12    14    1
    41     5     4    1
    42     4     1    1
    43     1     2    2
    44     1     3    1
    45     1    24    1
    46    24    25    1
    47    25    26    2
    48    25    27    1
