@<TRIPOS>MOLECULE
*****
 43 45 0 0 0
SMALL
GASTEIGER

@<TRIPOS>ATOM
      1 P          22.7595   71.4578   -2.7970 P.3     1  UNL1        0.2189
      2 O          23.1067   72.9238   -3.3866 O.co2   1  UNL1       -0.4371
      3 O          23.6611   70.3551   -3.2687 O.2     1  UNL1       -0.5170
      4 O          21.1867   71.2691   -3.1267 O.3     1  UNL1       -0.3112
      5 C          20.4805   72.3565   -3.6984 C.3     1  UNL1        0.1811
      6 O          18.3124   72.3114   -4.7333 O.3     1  UNL1       -0.3308
      7 O          17.3864   70.8304   -2.2961 O.3     1  UNL1       -0.3794
      8 O          17.7001   68.8306   -4.1235 O.3     1  UNL1       -0.3779
      9 C          18.6391   70.7568   -2.9748 C.3     1  UNL1        0.1713
     10 C          18.4892   69.9931   -4.2740 C.3     1  UNL1        0.1895
     11 C          18.9891   72.1557   -3.4667 C.3     1  UNL1        0.1764
     12 C          17.8383   71.0289   -5.1750 C.3     1  UNL1        0.2383
     13 H          17.1420   69.9487   -1.9725 H       1  UNL1        0.2105
     14 H          18.1567   68.2028   -3.5421 H       1  UNL1        0.2106
     15 O          16.0030   70.3641   -7.2165 O.2     1  UNL1       -0.2464
     16 O          19.3004   70.3745  -10.4365 O.2     1  UNL1       -0.2670
     17 N          18.1899   70.8521   -6.5558 N.ar    1  UNL1       -0.2551
     18 N          17.6463   70.3700   -8.8182 N.ar    1  UNL1       -0.2743
     19 C          17.1925   70.5179   -7.5013 C.ar    1  UNL1        0.3323
     20 C          19.5110   71.0103   -6.9602 C.ar    1  UNL1        0.0869
     21 C          19.9277   70.8645   -8.2198 C.ar    1  UNL1        0.0795
     22 C          18.9486   70.5156   -9.2694 C.ar    1  UNL1        0.2626
     23 H          16.9692   70.1369   -9.4942 H       1  UNL1        0.1734
     24 O          22.7693   71.6974   -1.1984 O.3     1  UNL1       -0.2703
     25 P          22.4329   70.6982    0.0269 P.3     1  UNL1        0.2208
     26 O          23.7094   69.7046    0.0565 O.co2   1  UNL1       -0.4371
     27 O          21.1085   70.0014   -0.0931 O.2     1  UNL1       -0.5170
     28 O          22.5930   71.6070    1.3510 O.3     1  UNL1       -0.2858
     29 O          21.6806   72.3216    3.4183 O.3     1  UNL1       -0.3258
     30 O          20.9453   75.7048    1.1679 O.3     1  UNL1       -0.3794
     31 O          23.0054   75.7525    3.1683 O.3     1  UNL1       -0.3794
     32 O          20.6427   73.0841   -0.0237 O.3     1  UNL1       -0.3775
     33 C          21.6798   74.5496    1.5820 C.3     1  UNL1        0.1715
     34 C          22.0369   74.7130    3.0607 C.3     1  UNL1        0.1694
     35 C          20.8163   73.3072    1.3715 C.3     1  UNL1        0.1967
     36 C          22.5889   73.4057    3.6450 C.3     1  UNL1        0.1761
     37 C          21.4317   72.0729    2.0333 C.3     1  UNL1        0.2704
     38 H          21.4882   76.4971    1.2985 H       1  UNL1        0.2105
     39 H          22.6445   76.5722    2.7954 H       1  UNL1        0.2105
     40 H          20.2522   73.8724   -0.4310 H       1  UNL1        0.2106
     41 O          24.0375   74.1515    5.3926 O.3     1  UNL1       -0.3794
     42 C          22.8037   73.4995    5.1540 C.3     1  UNL1        0.1693
     43 H          24.1873   74.2186    6.3491 H       1  UNL1        0.2105
@<TRIPOS>UNITY_ATOM_ATTR
2 1
charge -1
26 1
charge -1
@<TRIPOS>BOND
     1    25    28    1
     2    25    24    1
     3    25    26    1
     4    25    27    2
     5     1     4    1
     6     1    24    1
     7     1     2    1
     8     1     3    2
     9     6    11    1
    10     6    12    1
    11    29    36    1
    12    29    37    1
    13     7     9    1
    14     7    13    1
    15     8    10    1
    16     8    14    1
    17    28    37    1
    18     4     5    1
    19    30    33    1
    20    30    38    1
    21    31    34    1
    22    31    39    1
    23    32    35    1
    24    32    40    1
    25    41    42    1
    26    41    43    1
    27    15    19    2
    28    16    22    2
    29    17    12    1
    30    17    19   ar
    31    17    20   ar
    32    18    19   ar
    33    18    22   ar
    34    18    23    1
    35     9    10    1
    36     9    11    1
    37    10    12    1
    38    11     5    1
    39    33    34    1
    40    33    35    1
    41    34    36    1
    42    35    37    1
    43    36    42    1
    44    20    21   ar
    45    21    22   ar
@<TRIPOS>MOLECULE
*****
 43 45 0 0 0
SMALL
GASTEIGER

@<TRIPOS>ATOM
      1 P          21.6239   70.3679   -1.0335 P.3     1  UNL1        0.2189
      2 O          23.1666   70.7256   -1.3646 O.co2   1  UNL1       -0.4371
      3 O          21.4091   69.6091    0.2429 O.2     1  UNL1       -0.5170
      4 O          21.0960   69.6421   -2.3798 O.3     1  UNL1       -0.3112
      5 C          20.7745   70.4474   -3.5005 C.3     1  UNL1        0.1811
      6 O          19.0063   71.7097   -4.5271 O.3     1  UNL1       -0.3308
      7 O          17.2206   70.5868   -2.3961 O.3     1  UNL1       -0.3794
      8 O          16.6246   69.0284   -4.5531 O.3     1  UNL1       -0.3779
      9 C          18.3118   69.9691   -3.0767 C.3     1  UNL1        0.1713
     10 C          17.9119   69.6079   -4.4920 C.3     1  UNL1        0.1895
     11 C          19.3807   71.0297   -3.3091 C.3     1  UNL1        0.1764
     12 C          17.9808   70.9543   -5.1923 C.3     1  UNL1        0.2383
     13 H          16.5253   69.9288   -2.2363 H       1  UNL1        0.2105
     14 H          16.6323   68.1740   -4.0939 H       1  UNL1        0.2106
     15 O          16.1138   70.4475   -7.2504 O.2     1  UNL1       -0.2464
     16 O          19.3926   70.5039  -10.4889 O.2     1  UNL1       -0.2670
     17 N          18.3190   70.8321   -6.5823 N.ar    1  UNL1       -0.2551
     18 N          17.7479   70.4762   -8.8612 N.ar    1  UNL1       -0.2743
     19 C          17.3062   70.5759   -7.5357 C.ar    1  UNL1        0.3323
     20 C          19.6424   70.9664   -6.9879 C.ar    1  UNL1        0.0869
     21 C          20.0473   70.8672   -8.2557 C.ar    1  UNL1        0.0795
     22 C          19.0518   70.6007   -9.3140 C.ar    1  UNL1        0.2626
     23 H          17.0599   70.2976   -9.5428 H       1  UNL1        0.1734
     24 O          20.8964   71.8103   -1.0892 O.3     1  UNL1       -0.2703
     25 P          21.4414   73.2888   -0.7284 P.3     1  UNL1        0.2208
     26 O          20.2087   74.2504   -1.1446 O.co2   1  UNL1       -0.4371
     27 O          22.7476   73.6392   -1.3803 O.2     1  UNL1       -0.5170
     28 O          21.4659   73.3326    0.8848 O.3     1  UNL1       -0.2858
     29 O          23.2561   74.5365    1.8660 O.3     1  UNL1       -0.3258
     30 O          21.9936   72.4165    5.1769 O.3     1  UNL1       -0.3794
     31 O          21.4673   75.2350    5.0126 O.3     1  UNL1       -0.3794
     32 O          22.0021   71.1549    2.5715 O.3     1  UNL1       -0.3775
     33 C          21.8341   73.1260    3.9455 C.3     1  UNL1        0.1715
     34 C          22.3611   74.5491    4.1403 C.3     1  UNL1        0.1694
     35 C          22.6191   72.4072    2.8499 C.3     1  UNL1        0.1967
     36 C          22.4710   75.2875    2.7995 C.3     1  UNL1        0.1761
     37 C          22.7098   73.2485    1.5754 C.3     1  UNL1        0.2704
     38 H          21.4971   72.8674    5.8767 H       1  UNL1        0.2105
     39 H          21.4065   74.7582    5.8553 H       1  UNL1        0.2105
     40 H          21.9509   70.6317    3.3861 H       1  UNL1        0.2106
     41 O          22.2594   77.6429    2.4583 O.3     1  UNL1       -0.3794
     42 C          23.1416   76.6512    2.9508 C.3     1  UNL1        0.1693
     43 H          22.6729   78.5162    2.5485 H       1  UNL1        0.2105
@<TRIPOS>UNITY_ATOM_ATTR
2 1
charge -1
26 1
charge -1
@<TRIPOS>BOND
     1    25    28    1
     2    25    24    1
     3    25    26    1
     4    25    27    2
     5     1     4    1
     6     1    24    1
     7     1     2    1
     8     1     3    2
     9     6    11    1
    10     6    12    1
    11    29    36    1
    12    29    37    1
    13     7     9    1
    14     7    13    1
    15     8    10    1
    16     8    14    1
    17    28    37    1
    18     4     5    1
    19    30    33    1
    20    30    38    1
    21    31    34    1
    22    31    39    1
    23    32    35    1
    24    32    40    1
    25    41    42    1
    26    41    43    1
    27    15    19    2
    28    16    22    2
    29    17    12    1
    30    17    19   ar
    31    17    20   ar
    32    18    19   ar
    33    18    22   ar
    34    18    23    1
    35     9    10    1
    36     9    11    1
    37    10    12    1
    38    11     5    1
    39    33    34    1
    40    33    35    1
    41    34    36    1
    42    35    37    1
    43    36    42    1
    44    20    21   ar
    45    21    22   ar
@<TRIPOS>MOLECULE
*****
 43 45 0 0 0
SMALL
GASTEIGER

@<TRIPOS>ATOM
      1 P          22.5566   70.9418   -1.9951 P.3     1  UNL1        0.2189
      2 O          23.5646   70.7362   -3.2438 O.co2   1  UNL1       -0.4371
      3 O          23.1702   70.7258   -0.6430 O.2     1  UNL1       -0.5170
      4 O          21.2954   69.9938   -2.3539 O.3     1  UNL1       -0.3112
      5 C          20.6723   70.1469   -3.6173 C.3     1  UNL1        0.1811
      6 O          19.0307   71.5730   -4.6396 O.3     1  UNL1       -0.3308
      7 O          17.1351   70.5836   -2.5376 O.3     1  UNL1       -0.3794
      8 O          16.4232   69.1119   -4.7202 O.3     1  UNL1       -0.3779
      9 C          18.1736   69.8814   -3.2185 C.3     1  UNL1        0.1713
     10 C          17.7558   69.5752   -4.6416 C.3     1  UNL1        0.1895
     11 C          19.3335   70.8468   -3.4283 C.3     1  UNL1        0.1764
     12 C          17.9486   70.9194   -5.3228 C.3     1  UNL1        0.2383
     13 H          16.3833   69.9872   -2.3920 H       1  UNL1        0.2105
     14 H          16.3519   68.2542   -4.2729 H       1  UNL1        0.2106
     15 O          16.0725   70.4712   -7.3861 O.2     1  UNL1       -0.2464
     16 O          19.3606   70.4229  -10.6151 O.2     1  UNL1       -0.2670
     17 N          18.2868   70.7861   -6.7118 N.ar    1  UNL1       -0.2551
     18 N          17.7112   70.4477   -8.9922 N.ar    1  UNL1       -0.2743
     19 C          17.2691   70.5618   -7.6680 C.ar    1  UNL1        0.3323
     20 C          19.6149   70.8783   -7.1135 C.ar    1  UNL1        0.0869
     21 C          20.0202   70.7660   -8.3802 C.ar    1  UNL1        0.0795
     22 C          19.0197   70.5307   -9.4412 C.ar    1  UNL1        0.2626
     23 H          17.0199   70.2908   -9.6757 H       1  UNL1        0.1734
     24 O          21.9739   72.4296   -2.2395 O.3     1  UNL1       -0.2703
     25 P          22.6599   73.8817   -2.0558 P.3     1  UNL1        0.2208
     26 O          21.5777   74.8891   -2.7127 O.co2   1  UNL1       -0.4371
     27 O          24.0392   73.9889   -2.6387 O.2     1  UNL1       -0.5170
     28 O          22.5791   74.1741   -0.4706 O.3     1  UNL1       -0.2858
     29 O          21.4404   72.9015    1.1727 O.3     1  UNL1       -0.3258
     30 O          21.0223   76.6563    2.8393 O.3     1  UNL1       -0.3794
     31 O          22.8336   74.7711    4.0280 O.3     1  UNL1       -0.3794
     32 O          20.8248   76.3194   -0.0290 O.3     1  UNL1       -0.3775
     33 C          21.6866   75.6215    2.1091 C.3     1  UNL1        0.1715
     34 C          21.8699   74.4203    3.0388 C.3     1  UNL1        0.1694
     35 C          20.8364   75.2398    0.8988 C.3     1  UNL1        0.1967
     36 C          22.3310   73.1815    2.2591 C.3     1  UNL1        0.1761
     37 C          21.3523   73.9671    0.2248 C.3     1  UNL1        0.2704
     38 H          21.5571   76.9036    3.6089 H       1  UNL1        0.2105
     39 H          22.5307   75.5549    4.5127 H       1  UNL1        0.2105
     40 H          20.4960   77.1190    0.4096 H       1  UNL1        0.2106
     41 O          21.7056   72.2215    4.3558 O.3     1  UNL1       -0.3794
     42 C          22.3683   71.9335    3.1384 C.3     1  UNL1        0.1693
     43 H          21.7213   71.4360    4.9254 H       1  UNL1        0.2105
@<TRIPOS>UNITY_ATOM_ATTR
2 1
charge -1
26 1
charge -1
@<TRIPOS>BOND
     1    25    28    1
     2    25    24    1
     3    25    26    1
     4    25    27    2
     5     1     4    1
     6     1    24    1
     7     1     2    1
     8     1     3    2
     9     6    11    1
    10     6    12    1
    11    29    36    1
    12    29    37    1
    13     7     9    1
    14     7    13    1
    15     8    10    1
    16     8    14    1
    17    28    37    1
    18     4     5    1
    19    30    33    1
    20    30    38    1
    21    31    34    1
    22    31    39    1
    23    32    35    1
    24    32    40    1
    25    41    42    1
    26    41    43    1
    27    15    19    2
    28    16    22    2
    29    17    12    1
    30    17    19   ar
    31    17    20   ar
    32    18    19   ar
    33    18    22   ar
    34    18    23    1
    35     9    10    1
    36     9    11    1
    37    10    12    1
    38    11     5    1
    39    33    34    1
    40    33    35    1
    41    34    36    1
    42    35    37    1
    43    36    42    1
    44    20    21   ar
    45    21    22   ar
@<TRIPOS>MOLECULE
*****
 43 45 0 0 0
SMALL
GASTEIGER

@<TRIPOS>ATOM
      1 P          22.7568   71.5760   -2.1208 P.3     1  UNL1        0.2189
      2 O          23.0916   73.1366   -2.3851 O.co2   1  UNL1       -0.4371
      3 O          23.5252   70.6097   -2.9736 O.2     1  UNL1       -0.5170
      4 O          21.1457   71.4975   -2.2474 O.3     1  UNL1       -0.3112
      5 C          20.5696   71.4732   -3.5417 C.3     1  UNL1        0.1811
      6 O          18.6275   72.2386   -4.7318 O.3     1  UNL1       -0.3308
      7 O          17.0233   71.1066   -2.4656 O.3     1  UNL1       -0.3794
      8 O          16.7742   69.1875   -4.3869 O.3     1  UNL1       -0.3779
      9 C          18.2251   70.6132   -3.0550 C.3     1  UNL1        0.1713
     10 C          17.9329   69.9962   -4.4069 C.3     1  UNL1        0.1895
     11 C          19.0889   71.8103   -3.4318 C.3     1  UNL1        0.1764
     12 C          17.7732   71.2249   -5.2861 C.3     1  UNL1        0.2383
     13 H          16.4554   70.3601   -2.2163 H       1  UNL1        0.2105
     14 H          16.9257   68.4194   -3.8144 H       1  UNL1        0.2106
     15 O          16.0237   70.3112   -7.3066 O.2     1  UNL1       -0.2464
     16 O          19.3774   70.3169  -10.4679 O.2     1  UNL1       -0.2670
     17 N          18.1624   70.9795   -6.6461 N.ar    1  UNL1       -0.2551
     18 N          17.6949   70.3150   -8.8791 N.ar    1  UNL1       -0.2743
     19 C          17.2067   70.5208   -7.5825 C.ar    1  UNL1        0.3323
     20 C          19.4789   71.1939   -7.0396 C.ar    1  UNL1        0.0869
     21 C          19.9288   70.9916   -8.2797 C.ar    1  UNL1        0.0795
     22 C          18.9944   70.5125   -9.3186 C.ar    1  UNL1        0.2626
     23 H          17.0472   69.9951   -9.5483 H       1  UNL1        0.1734
     24 O          23.0046   71.4151   -0.5316 O.3     1  UNL1       -0.2703
     25 P          22.2876   70.4673    0.5640 P.3     1  UNL1        0.2208
     26 O          23.5242   69.9385    1.4633 O.co2   1  UNL1       -0.4371
     27 O          21.4402   69.3773   -0.0257 O.2     1  UNL1       -0.5170
     28 O          21.4900   71.4875    1.5273 O.3     1  UNL1       -0.2858
     29 O          21.8524   73.8038    1.1809 O.3     1  UNL1       -0.3258
     30 O          20.2090   73.9520    4.9662 O.3     1  UNL1       -0.3794
     31 O          18.6662   74.8452    2.7146 O.3     1  UNL1       -0.3794
     32 O          22.0248   71.8100    4.2632 O.3     1  UNL1       -0.3775
     33 C          20.3766   73.4509    3.6372 C.3     1  UNL1        0.1715
     34 C          20.0653   74.5822    2.6553 C.3     1  UNL1        0.1694
     35 C          21.8155   72.9687    3.4632 C.3     1  UNL1        0.1967
     36 C          20.4780   74.2046    1.2263 C.3     1  UNL1        0.1761
     37 C          22.1369   72.6668    1.9984 C.3     1  UNL1        0.2704
     38 H          19.2972   74.2593    5.0834 H       1  UNL1        0.2105
     39 H          18.4186   75.0819    3.6222 H       1  UNL1        0.2105
     40 H          21.8183   72.0142    5.1882 H       1  UNL1        0.2106
     41 O          21.2981   76.3517    0.5731 O.3     1  UNL1       -0.3794
     42 C          20.3226   75.3752    0.2579 C.3     1  UNL1        0.1693
     43 H          21.2114   77.1026   -0.0354 H       1  UNL1        0.2105
@<TRIPOS>UNITY_ATOM_ATTR
2 1
charge -1
26 1
charge -1
@<TRIPOS>BOND
     1    25    28    1
     2    25    24    1
     3    25    26    1
     4    25    27    2
     5     1     4    1
     6     1    24    1
     7     1     2    1
     8     1     3    2
     9     6    11    1
    10     6    12    1
    11    29    36    1
    12    29    37    1
    13     7     9    1
    14     7    13    1
    15     8    10    1
    16     8    14    1
    17    28    37    1
    18     4     5    1
    19    30    33    1
    20    30    38    1
    21    31    34    1
    22    31    39    1
    23    32    35    1
    24    32    40    1
    25    41    42    1
    26    41    43    1
    27    15    19    2
    28    16    22    2
    29    17    12    1
    30    17    19   ar
    31    17    20   ar
    32    18    19   ar
    33    18    22   ar
    34    18    23    1
    35     9    10    1
    36     9    11    1
    37    10    12    1
    38    11     5    1
    39    33    34    1
    40    33    35    1
    41    34    36    1
    42    35    37    1
    43    36    42    1
    44    20    21   ar
    45    21    22   ar
@<TRIPOS>MOLECULE
*****
 43 45 0 0 0
SMALL
GASTEIGER

@<TRIPOS>ATOM
      1 P          22.0171   73.9712   -6.1598 P.3     1  UNL1        0.2189
      2 O          22.3018   75.4923   -6.6318 O.co2   1  UNL1       -0.4371
      3 O          22.8295   72.9259   -6.8661 O.2     1  UNL1       -0.5170
      4 O          20.4114   73.8188   -6.2884 O.3     1  UNL1       -0.3112
      5 C          19.7506   74.4938   -7.3446 C.3     1  UNL1        0.1811
      6 O          19.6295   72.1664   -7.9297 O.3     1  UNL1       -0.3308
      7 O          17.9724   73.0343  -10.2731 O.3     1  UNL1       -0.3794
      8 O          16.0916   72.1316   -8.5169 O.3     1  UNL1       -0.3779
      9 C          18.0088   73.5631   -8.9486 C.3     1  UNL1        0.1713
     10 C          17.3053   72.6263   -7.9889 C.3     1  UNL1        0.1895
     11 C          19.4495   73.4990   -8.4571 C.3     1  UNL1        0.1764
     12 C          18.3453   71.5362   -7.7935 C.3     1  UNL1        0.2383
     13 H          17.0622   73.0651  -10.6085 H       1  UNL1        0.2105
     14 H          15.4630   72.8627   -8.6227 H       1  UNL1        0.2106
     15 O          16.1832   69.9436   -6.9178 O.2     1  UNL1       -0.2464
     16 O          18.1290   69.2431   -2.7991 O.2     1  UNL1       -0.2670
     17 N          18.2610   70.9248   -6.4972 N.ar    1  UNL1       -0.2551
     18 N          17.1539   69.5960   -4.8678 N.ar    1  UNL1       -0.2743
     19 C          17.1315   70.1448   -6.1563 C.ar    1  UNL1        0.3323
     20 C          19.2911   71.1009   -5.5797 C.ar    1  UNL1        0.0869
     21 C          19.2966   70.5718   -4.3544 C.ar    1  UNL1        0.0795
     22 C          18.1536   69.7434   -3.9194 C.ar    1  UNL1        0.2626
     23 H          16.3772   69.0491   -4.6081 H       1  UNL1        0.1734
     24 O          22.2490   74.0372   -4.5614 O.3     1  UNL1       -0.2703
     25 P          23.1508   73.1216   -3.5809 P.3     1  UNL1        0.2208
     26 O          24.5905   73.8594   -3.6045 O.co2   1  UNL1       -0.4371
     27 O          23.1928   71.6698   -3.9607 O.2     1  UNL1       -0.5170
     28 O          22.5692   73.4100   -2.1033 O.3     1  UNL1       -0.2858
     29 O          21.7107   71.5162   -0.9661 O.3     1  UNL1       -0.3258
     30 O          20.1112   74.4924    1.4077 O.3     1  UNL1       -0.3794
     31 O          22.2819   72.8972    2.4037 O.3     1  UNL1       -0.3794
     32 O          20.2484   74.8511   -1.4615 O.3     1  UNL1       -0.3775
     33 C          21.0985   73.8811    0.5727 C.3     1  UNL1        0.1715
     34 C          21.5400   72.5726    1.2312 C.3     1  UNL1        0.1694
     35 C          20.4916   73.6126   -0.8032 C.3     1  UNL1        0.1967
     36 C          22.3949   71.7315    0.2738 C.3     1  UNL1        0.1761
     37 C          21.4001   72.7272   -1.6581 C.3     1  UNL1        0.2704
     38 H          20.4903   74.6660    2.2827 H       1  UNL1        0.2105
     39 H          21.7309   73.4288    2.9996 H       1  UNL1        0.2105
     40 H          19.6720   75.4023   -0.9103 H       1  UNL1        0.2106
     41 O          21.6667   69.4678    0.5058 O.3     1  UNL1       -0.3794
     42 C          22.7145   70.3547    0.8519 C.3     1  UNL1        0.1693
     43 H          21.8566   68.5873    0.8669 H       1  UNL1        0.2105
@<TRIPOS>UNITY_ATOM_ATTR
2 1
charge -1
26 1
charge -1
@<TRIPOS>BOND
     1    25    28    1
     2    25    24    1
     3    25    26    1
     4    25    27    2
     5     1     4    1
     6     1    24    1
     7     1     2    1
     8     1     3    2
     9     6    11    1
    10     6    12    1
    11    29    36    1
    12    29    37    1
    13     7     9    1
    14     7    13    1
    15     8    10    1
    16     8    14    1
    17    28    37    1
    18     4     5    1
    19    30    33    1
    20    30    38    1
    21    31    34    1
    22    31    39    1
    23    32    35    1
    24    32    40    1
    25    41    42    1
    26    41    43    1
    27    15    19    2
    28    16    22    2
    29    17    12    1
    30    17    19   ar
    31    17    20   ar
    32    18    19   ar
    33    18    22   ar
    34    18    23    1
    35     9    10    1
    36     9    11    1
    37    10    12    1
    38    11     5    1
    39    33    34    1
    40    33    35    1
    41    34    36    1
    42    35    37    1
    43    36    42    1
    44    20    21   ar
    45    21    22   ar
@<TRIPOS>MOLECULE
*****
 43 45 0 0 0
SMALL
GASTEIGER

@<TRIPOS>ATOM
      1 P          22.6389   72.3744   -2.4180 P.3     1  UNL1        0.2189
      2 O          23.5139   71.4755   -3.4396 O.co2   1  UNL1       -0.4371
      3 O          23.3209   72.7082   -1.1239 O.2     1  UNL1       -0.5170
      4 O          21.2426   71.5671   -2.2885 O.3     1  UNL1       -0.3112
      5 C          20.5718   71.1818   -3.4757 C.3     1  UNL1        0.1811
      6 O          18.6837   72.1009   -4.6436 O.3     1  UNL1       -0.3308
      7 O          16.9958   70.9023   -2.4745 O.3     1  UNL1       -0.3794
      8 O          16.6989   69.1166   -4.5141 O.3     1  UNL1       -0.3779
      9 C          18.1856   70.3947   -3.0763 C.3     1  UNL1        0.1713
     10 C          17.8905   69.8746   -4.4677 C.3     1  UNL1        0.1895
     11 C          19.1049   71.5747   -3.3661 C.3     1  UNL1        0.1764
     12 C          17.7971   71.1604   -5.2715 C.3     1  UNL1        0.2383
     13 H          16.3931   70.1669   -2.2799 H       1  UNL1        0.2105
     14 H          16.8085   68.3091   -3.9880 H       1  UNL1        0.2106
     15 O          16.0537   70.4036   -7.3609 O.2     1  UNL1       -0.2464
     16 O          19.4481   70.5052  -10.4767 O.2     1  UNL1       -0.2670
     17 N          18.1985   70.9822   -6.6384 N.ar    1  UNL1       -0.2551
     18 N          17.7452   70.4550   -8.9106 N.ar    1  UNL1       -0.2743
     19 C          17.2449   70.5997   -7.6104 C.ar    1  UNL1        0.3323
     20 C          19.5248   71.1864   -7.0035 C.ar    1  UNL1        0.0869
     21 C          19.9861   71.0430   -8.2476 C.ar    1  UNL1        0.0795
     22 C          19.0546   70.6454   -9.3229 C.ar    1  UNL1        0.2626
     23 H          17.0991   70.1888   -9.6044 H       1  UNL1        0.1734
     24 O          22.2354   73.6564   -3.3160 O.3     1  UNL1       -0.2703
     25 P          22.5639   74.0191   -4.8566 P.3     1  UNL1        0.2208
     26 O          21.3972   75.0696   -5.2475 O.co2   1  UNL1       -0.4371
     27 O          22.6528   72.8265   -5.7641 O.2     1  UNL1       -0.5170
     28 O          23.9083   74.9097   -4.7888 O.3     1  UNL1       -0.2858
     29 O          26.0111   74.8334   -3.6984 O.3     1  UNL1       -0.3258
     30 O          24.9394   78.7172   -2.7939 O.3     1  UNL1       -0.3794
     31 O          27.0109   78.2305   -4.7226 O.3     1  UNL1       -0.3794
     32 O          22.9343   76.6293   -2.7966 O.3     1  UNL1       -0.3775
     33 C          25.0125   77.5407   -3.6038 C.3     1  UNL1        0.1715
     34 C          26.4877   77.2252   -3.8590 C.3     1  UNL1        0.1694
     35 C          24.3350   76.3857   -2.8687 C.3     1  UNL1        0.1967
     36 C          26.6559   75.8370   -4.4913 C.3     1  UNL1        0.1761
     37 C          24.6054   75.0446   -3.5530 C.3     1  UNL1        0.2704
     38 H          25.3674   79.4545   -3.2551 H       1  UNL1        0.2105
     39 H          26.8980   79.1021   -4.3119 H       1  UNL1        0.2105
     40 H          22.7763   77.4810   -2.3611 H       1  UNL1        0.2106
     41 O          28.2433   74.4570   -5.6247 O.3     1  UNL1       -0.3794
     42 C          28.1248   75.4366   -4.6094 C.3     1  UNL1        0.1693
     43 H          29.1731   74.1928   -5.7113 H       1  UNL1        0.2105
@<TRIPOS>UNITY_ATOM_ATTR
2 1
charge -1
26 1
charge -1
@<TRIPOS>BOND
     1    25    28    1
     2    25    24    1
     3    25    26    1
     4    25    27    2
     5     1     4    1
     6     1    24    1
     7     1     2    1
     8     1     3    2
     9     6    11    1
    10     6    12    1
    11    29    36    1
    12    29    37    1
    13     7     9    1
    14     7    13    1
    15     8    10    1
    16     8    14    1
    17    28    37    1
    18     4     5    1
    19    30    33    1
    20    30    38    1
    21    31    34    1
    22    31    39    1
    23    32    35    1
    24    32    40    1
    25    41    42    1
    26    41    43    1
    27    15    19    2
    28    16    22    2
    29    17    12    1
    30    17    19   ar
    31    17    20   ar
    32    18    19   ar
    33    18    22   ar
    34    18    23    1
    35     9    10    1
    36     9    11    1
    37    10    12    1
    38    11     5    1
    39    33    34    1
    40    33    35    1
    41    34    36    1
    42    35    37    1
    43    36    42    1
    44    20    21   ar
    45    21    22   ar
@<TRIPOS>MOLECULE
*****
 43 45 0 0 0
SMALL
GASTEIGER

@<TRIPOS>ATOM
      1 P          21.1938   73.9615   -1.8149 P.3     1  UNL1        0.2189
      2 O          20.0765   75.0785   -1.4667 O.co2   1  UNL1       -0.4371
      3 O          22.6115   74.4517   -1.7830 O.2     1  UNL1       -0.5170
      4 O          20.6965   73.3406   -3.2238 O.3     1  UNL1       -0.3112
      5 C          20.1280   72.0427   -3.2277 C.3     1  UNL1        0.1811
      6 O          18.1463   72.6196   -4.4580 O.3     1  UNL1       -0.3308
      7 O          16.6282   71.1180   -2.3530 O.3     1  UNL1       -0.3794
      8 O          16.7255   69.3270   -4.4071 O.3     1  UNL1       -0.3779
      9 C          17.9094   70.8373   -2.9143 C.3     1  UNL1        0.1713
     10 C          17.7596   70.2857   -4.3168 C.3     1  UNL1        0.1895
     11 C          18.6116   72.1655   -3.1682 C.3     1  UNL1        0.1764
     12 C          17.4645   71.5414   -5.1194 C.3     1  UNL1        0.2383
     13 H          16.1609   70.2847   -2.1818 H       1  UNL1        0.2105
     14 H          16.9603   68.5473   -3.8800 H       1  UNL1        0.2106
     15 O          15.9799   72.3396   -7.3859 O.2     1  UNL1       -0.2464
     16 O          19.3791   71.1457  -10.2601 O.2     1  UNL1       -0.2670
     17 N          17.9374   71.4506   -6.4720 N.ar    1  UNL1       -0.2551
     18 N          17.6737   71.7447   -8.8152 N.ar    1  UNL1       -0.2743
     19 C          17.1126   71.8778   -7.5387 C.ar    1  UNL1        0.3323
     20 C          19.2060   70.9429   -6.7300 C.ar    1  UNL1        0.0869
     21 C          19.7259   70.8213   -7.9532 C.ar    1  UNL1        0.0795
     22 C          18.9292   71.2449   -9.1227 C.ar    1  UNL1        0.2626
     23 H          17.1172   72.0356   -9.5737 H       1  UNL1        0.1734
     24 O          20.8668   72.7797   -0.7615 O.3     1  UNL1       -0.2703
     25 P          21.8265   71.9684    0.2552 P.3     1  UNL1        0.2208
     26 O          23.2007   71.8046   -0.5827 O.co2   1  UNL1       -0.4371
     27 O          21.2454   70.6758    0.7506 O.2     1  UNL1       -0.5170
     28 O          22.1816   73.0309    1.4172 O.3     1  UNL1       -0.2858
     29 O          23.8855   73.2402    3.0510 O.3     1  UNL1       -0.3258
     30 O          20.6052   74.1095    5.4036 O.3     1  UNL1       -0.3794
     31 O          22.4098   76.2139    4.6535 O.3     1  UNL1       -0.3794
     32 O          20.4220   72.0545    3.3730 O.3     1  UNL1       -0.3775
     33 C          21.3822   74.1017    4.2029 C.3     1  UNL1        0.1715
     34 C          22.6991   74.8297    4.4792 C.3     1  UNL1        0.1694
     35 C          21.6442   72.6553    3.7874 C.3     1  UNL1        0.1967
     36 C          23.6934   74.6325    3.3269 C.3     1  UNL1        0.1761
     37 C          22.6837   72.5686    2.6684 C.3     1  UNL1        0.2704
     38 H          20.4348   75.0250    5.6726 H       1  UNL1        0.2105
     39 H          21.7807   76.3245    5.3837 H       1  UNL1        0.2105
     40 H          19.7724   72.1156    4.0901 H       1  UNL1        0.2106
     41 O          25.2387   75.2097    5.0554 O.3     1  UNL1       -0.3794
     42 C          25.0667   75.2169    3.6502 C.3     1  UNL1        0.1693
     43 H          26.1087   75.5786    5.2760 H       1  UNL1        0.2105
@<TRIPOS>UNITY_ATOM_ATTR
2 1
charge -1
26 1
charge -1
@<TRIPOS>BOND
     1    25    28    1
     2    25    24    1
     3    25    26    1
     4    25    27    2
     5     1     4    1
     6     1    24    1
     7     1     2    1
     8     1     3    2
     9     6    11    1
    10     6    12    1
    11    29    36    1
    12    29    37    1
    13     7     9    1
    14     7    13    1
    15     8    10    1
    16     8    14    1
    17    28    37    1
    18     4     5    1
    19    30    33    1
    20    30    38    1
    21    31    34    1
    22    31    39    1
    23    32    35    1
    24    32    40    1
    25    41    42    1
    26    41    43    1
    27    15    19    2
    28    16    22    2
    29    17    12    1
    30    17    19   ar
    31    17    20   ar
    32    18    19   ar
    33    18    22   ar
    34    18    23    1
    35     9    10    1
    36     9    11    1
    37    10    12    1
    38    11     5    1
    39    33    34    1
    40    33    35    1
    41    34    36    1
    42    35    37    1
    43    36    42    1
    44    20    21   ar
    45    21    22   ar
@<TRIPOS>MOLECULE
*****
 43 45 0 0 0
SMALL
GASTEIGER

@<TRIPOS>ATOM
      1 P          22.3961   71.8747   -3.5075 P.3     1  UNL1        0.2189
      2 O          20.8241   71.5521   -3.3022 O.co2   1  UNL1       -0.4371
      3 O          23.3171   70.7132   -3.2751 O.2     1  UNL1       -0.5170
      4 O          22.6515   73.1715   -2.5742 O.3     1  UNL1       -0.3112
      5 C          22.8929   72.9729   -1.1922 C.3     1  UNL1        0.1811
      6 O          21.8258   72.6954    0.9428 O.3     1  UNL1       -0.3308
      7 O          19.4250   73.9943   -0.2982 O.3     1  UNL1       -0.3794
      8 O          20.5332   76.0356    1.1306 O.3     1  UNL1       -0.3779
      9 C          20.8092   74.2651   -0.5127 C.3     1  UNL1        0.1713
     10 C          21.3892   75.0090    0.6721 C.3     1  UNL1        0.1895
     11 C          21.5607   72.9409   -0.4557 C.3     1  UNL1        0.1764
     12 C          21.5627   73.8944    1.6898 C.3     1  UNL1        0.2383
     13 H          18.9244   74.8251   -0.3305 H       1  UNL1        0.2105
     14 H          20.4551   76.7204    0.4482 H       1  UNL1        0.2106
     15 O          23.9797   75.1546    0.9497 O.2     1  UNL1       -0.2464
     16 O          25.6990   74.7668    5.2082 O.2     1  UNL1       -0.2670
     17 N          22.6588   74.1360    2.5851 N.ar    1  UNL1       -0.2551
     18 N          24.8338   74.9606    3.0707 N.ar    1  UNL1       -0.2743
     19 C          23.8287   74.7753    2.1129 C.ar    1  UNL1        0.3323
     20 C          22.5672   73.7407    3.9152 C.ar    1  UNL1        0.0869
     21 C          23.5351   73.9236    4.8157 C.ar    1  UNL1        0.0795
     22 C          24.7904   74.5843    4.4038 C.ar    1  UNL1        0.2626
     23 H          25.6582   75.4037    2.7644 H       1  UNL1        0.1734
     24 O          22.4493   72.4869   -5.0026 O.3     1  UNL1       -0.2703
     25 P          21.7301   73.7844   -5.6446 P.3     1  UNL1        0.2208
     26 O          22.8404   74.3519   -6.6755 O.co2   1  UNL1       -0.4371
     27 O          21.2537   74.7871   -4.6339 O.2     1  UNL1       -0.5170
     28 O          20.5677   73.1819   -6.5885 O.3     1  UNL1       -0.2858
     29 O          19.6969   70.9954   -6.3099 O.3     1  UNL1       -0.3258
     30 O          18.8613   71.5327  -10.3179 O.3     1  UNL1       -0.3794
     31 O          16.7205   71.5818   -8.4041 O.3     1  UNL1       -0.3794
     32 O          21.3372   72.5445   -9.2108 O.3     1  UNL1       -0.3775
     33 C          19.0211   71.9352   -8.9548 C.3     1  UNL1        0.1715
     34 C          18.0382   71.1332   -8.0996 C.3     1  UNL1        0.1694
     35 C          20.4595   71.6626   -8.5192 C.3     1  UNL1        0.1967
     36 C          18.3313   71.3122   -6.6039 C.3     1  UNL1        0.1761
     37 C          20.6315   71.8212   -7.0074 C.3     1  UNL1        0.2704
     38 H          17.9502   71.7036  -10.6009 H       1  UNL1        0.2105
     39 H          16.5483   71.4638   -9.3515 H       1  UNL1        0.2105
     40 H          21.2190   72.4343  -10.1667 H       1  UNL1        0.2106
     41 O          16.2752   71.0911   -5.4070 O.3     1  UNL1       -0.3794
     42 C          17.4654   70.3996   -5.7382 C.3     1  UNL1        0.1693
     43 H          15.7140   70.5222   -4.8563 H       1  UNL1        0.2105
@<TRIPOS>UNITY_ATOM_ATTR
2 1
charge -1
26 1
charge -1
@<TRIPOS>BOND
     1    25    28    1
     2    25    24    1
     3    25    26    1
     4    25    27    2
     5     1     4    1
     6     1    24    1
     7     1     2    1
     8     1     3    2
     9     6    11    1
    10     6    12    1
    11    29    36    1
    12    29    37    1
    13     7     9    1
    14     7    13    1
    15     8    10    1
    16     8    14    1
    17    28    37    1
    18     4     5    1
    19    30    33    1
    20    30    38    1
    21    31    34    1
    22    31    39    1
    23    32    35    1
    24    32    40    1
    25    41    42    1
    26    41    43    1
    27    15    19    2
    28    16    22    2
    29    17    12    1
    30    17    19   ar
    31    17    20   ar
    32    18    19   ar
    33    18    22   ar
    34    18    23    1
    35     9    10    1
    36     9    11    1
    37    10    12    1
    38    11     5    1
    39    33    34    1
    40    33    35    1
    41    34    36    1
    42    35    37    1
    43    36    42    1
    44    20    21   ar
    45    21    22   ar
@<TRIPOS>MOLECULE
*****
 43 45 0 0 0
SMALL
GASTEIGER

@<TRIPOS>ATOM
      1 P          22.7038   72.9176   -3.8658 P.3     1  UNL1        0.2189
      2 O          23.2463   73.7307   -5.1550 O.co2   1  UNL1       -0.4371
      3 O          23.5630   71.7650   -3.4359 O.2     1  UNL1       -0.5170
      4 O          21.1767   72.5494   -4.2532 O.3     1  UNL1       -0.3112
      5 C          20.5380   71.4938   -3.5563 C.3     1  UNL1        0.1811
      6 O          18.5817   72.2486   -4.7297 O.3     1  UNL1       -0.3308
      7 O          17.0001   71.0516   -2.4810 O.3     1  UNL1       -0.3794
      8 O          16.7782   69.1626   -4.4352 O.3     1  UNL1       -0.3779
      9 C          18.2086   70.5879   -3.0809 C.3     1  UNL1        0.1713
     10 C          17.9237   69.9900   -4.4429 C.3     1  UNL1        0.1895
     11 C          19.0524   71.8052   -3.4381 C.3     1  UNL1        0.1764
     12 C          17.7427   71.2310   -5.3002 C.3     1  UNL1        0.2383
     13 H          16.4448   70.2918   -2.2439 H       1  UNL1        0.2105
     14 H          16.9431   68.3871   -3.8764 H       1  UNL1        0.2106
     15 O          16.0068   70.3149   -7.3313 O.2     1  UNL1       -0.2464
     16 O          19.3513   70.4399  -10.4998 O.2     1  UNL1       -0.2670
     17 N          18.1333   71.0157   -6.6650 N.ar    1  UNL1       -0.2551
     18 N          17.6735   70.3781   -8.9074 N.ar    1  UNL1       -0.2743
     19 C          17.1846   70.5529   -7.6064 C.ar    1  UNL1        0.3323
     20 C          19.4441   71.2631   -7.0579 C.ar    1  UNL1        0.0869
     21 C          19.8947   71.0901   -8.3022 C.ar    1  UNL1        0.0795
     22 C          18.9674   70.6091   -9.3466 C.ar    1  UNL1        0.2626
     23 H          17.0305   70.0560   -9.5802 H       1  UNL1        0.1734
     24 O          22.5270   74.0766   -2.7530 O.3     1  UNL1       -0.2703
     25 P          23.6072   74.7982   -1.7910 P.3     1  UNL1        0.2208
     26 O          23.0090   76.2912   -1.6158 O.co2   1  UNL1       -0.4371
     27 O          25.0169   74.7523   -2.3054 O.2     1  UNL1       -0.5170
     28 O          23.3984   74.1037   -0.3492 O.3     1  UNL1       -0.2858
     29 O          21.6549   72.4998   -0.2821 O.3     1  UNL1       -0.3258
     30 O          22.2791   72.9658    3.7730 O.3     1  UNL1       -0.3794
     31 O          23.1365   70.5519    2.4746 O.3     1  UNL1       -0.3794
     32 O          22.4283   75.2614    2.0159 O.3     1  UNL1       -0.3775
     33 C          22.6588   72.8942    2.3961 C.3     1  UNL1        0.1715
     34 C          22.2773   71.5111    1.8647 C.3     1  UNL1        0.1694
     35 C          21.9290   73.9886    1.6195 C.3     1  UNL1        0.1967
     36 C          22.4071   71.4495    0.3368 C.3     1  UNL1        0.1761
     37 C          22.0817   73.8064    0.1083 C.3     1  UNL1        0.2704
     38 H          22.7394   72.2738    4.2719 H       1  UNL1        0.2105
     39 H          23.0453   70.6015    3.4392 H       1  UNL1        0.2105
     40 H          22.3257   75.3646    2.9744 H       1  UNL1        0.2106
     41 O          22.7149   69.0826    0.2292 O.3     1  UNL1       -0.3794
     42 C          21.8822   70.1318   -0.2291 C.3     1  UNL1        0.1693
     43 H          22.3927   68.2376   -0.1229 H       1  UNL1        0.2105
@<TRIPOS>UNITY_ATOM_ATTR
2 1
charge -1
26 1
charge -1
@<TRIPOS>BOND
     1    25    28    1
     2    25    24    1
     3    25    26    1
     4    25    27    2
     5     1     4    1
     6     1    24    1
     7     1     2    1
     8     1     3    2
     9     6    11    1
    10     6    12    1
    11    29    36    1
    12    29    37    1
    13     7     9    1
    14     7    13    1
    15     8    10    1
    16     8    14    1
    17    28    37    1
    18     4     5    1
    19    30    33    1
    20    30    38    1
    21    31    34    1
    22    31    39    1
    23    32    35    1
    24    32    40    1
    25    41    42    1
    26    41    43    1
    27    15    19    2
    28    16    22    2
    29    17    12    1
    30    17    19   ar
    31    17    20   ar
    32    18    19   ar
    33    18    22   ar
    34    18    23    1
    35     9    10    1
    36     9    11    1
    37    10    12    1
    38    11     5    1
    39    33    34    1
    40    33    35    1
    41    34    36    1
    42    35    37    1
    43    36    42    1
    44    20    21   ar
    45    21    22   ar
@<TRIPOS>MOLECULE
*****
 43 45 0 0 0
SMALL
GASTEIGER

@<TRIPOS>ATOM
      1 P          20.2248   75.1441   -4.1494 P.3     1  UNL1        0.2189
      2 O          20.1630   75.4420   -2.5604 O.co2   1  UNL1       -0.4371
      3 O          19.9972   76.3393   -5.0276 O.2     1  UNL1       -0.5170
      4 O          19.1930   73.9148   -4.3545 O.3     1  UNL1       -0.3112
      5 C          18.6983   73.2485   -3.2060 C.3     1  UNL1        0.1811
      6 O          16.9552   73.0248   -4.8448 O.3     1  UNL1       -0.3308
      7 O          15.5214   71.3446   -2.8170 O.3     1  UNL1       -0.3794
      8 O          16.5885   69.4747   -4.4908 O.3     1  UNL1       -0.3779
      9 C          16.9191   71.4336   -3.0891 C.3     1  UNL1        0.1713
     10 C          17.2494   70.7190   -4.3828 C.3     1  UNL1        0.1895
     11 C          17.2383   72.8826   -3.4355 C.3     1  UNL1        0.1764
     12 C          16.7825   71.7214   -5.4246 C.3     1  UNL1        0.2383
     13 H          15.2936   70.4282   -2.5928 H       1  UNL1        0.2105
     14 H          16.9200   68.8719   -3.8071 H       1  UNL1        0.2106
     15 O          15.8157   72.4795   -7.9679 O.2     1  UNL1       -0.2464
     16 O          19.8002   71.3875  -10.0105 O.2     1  UNL1       -0.2670
     17 N          17.5460   71.6460   -6.6381 N.ar    1  UNL1       -0.2551
     18 N          17.8005   71.9353   -8.9829 N.ar    1  UNL1       -0.2743
     19 C          16.9667   72.0506   -7.8633 C.ar    1  UNL1        0.3323
     20 C          18.8542   71.1752   -6.6057 C.ar    1  UNL1        0.0869
     21 C          19.6356   71.0702   -7.6825 C.ar    1  UNL1        0.0795
     22 C          19.1066   71.4722   -9.0018 C.ar    1  UNL1        0.2626
     23 H          17.4182   72.2110   -9.8475 H       1  UNL1        0.1734
     24 O          21.6688   74.4407   -4.3315 O.3     1  UNL1       -0.2703
     25 P          22.1926   72.9689   -3.9161 P.3     1  UNL1        0.2208
     26 O          23.7882   73.0581   -4.1683 O.co2   1  UNL1       -0.4371
     27 O          21.5125   71.8457   -4.6439 O.2     1  UNL1       -0.5170
     28 O          22.0359   72.9176   -2.3106 O.3     1  UNL1       -0.2858
     29 O          23.4173   73.2031   -0.4062 O.3     1  UNL1       -0.3258
     30 O          21.6160   69.6304    0.6149 O.3     1  UNL1       -0.3794
     31 O          20.8742   72.0376    1.9945 O.3     1  UNL1       -0.3794
     32 O          22.3641   70.1361   -2.1354 O.3     1  UNL1       -0.3775
     33 C          21.6855   70.9351    0.0331 C.3     1  UNL1        0.1715
     34 C          22.0114   71.9378    1.1418 C.3     1  UNL1        0.1694
     35 C          22.7737   70.9463   -1.0389 C.3     1  UNL1        0.1967
     36 C          22.3644   73.3128    0.5588 C.3     1  UNL1        0.1761
     37 C          23.0825   72.3667   -1.5154 C.3     1  UNL1        0.2704
     38 H          20.9266   69.6164    1.2961 H       1  UNL1        0.2105
     39 H          20.6615   71.1626    2.3556 H       1  UNL1        0.2105
     40 H          22.1719   69.2395   -1.8208 H       1  UNL1        0.2106
     41 O          21.7177   74.7596    2.3470 O.3     1  UNL1       -0.3794
     42 C          22.8451   74.2839    1.6349 C.3     1  UNL1        0.1693
     43 H          22.0085   75.3786    3.0355 H       1  UNL1        0.2105
@<TRIPOS>UNITY_ATOM_ATTR
2 1
charge -1
26 1
charge -1
@<TRIPOS>BOND
     1    25    28    1
     2    25    24    1
     3    25    26    1
     4    25    27    2
     5     1     4    1
     6     1    24    1
     7     1     2    1
     8     1     3    2
     9     6    11    1
    10     6    12    1
    11    29    36    1
    12    29    37    1
    13     7     9    1
    14     7    13    1
    15     8    10    1
    16     8    14    1
    17    28    37    1
    18     4     5    1
    19    30    33    1
    20    30    38    1
    21    31    34    1
    22    31    39    1
    23    32    35    1
    24    32    40    1
    25    41    42    1
    26    41    43    1
    27    15    19    2
    28    16    22    2
    29    17    12    1
    30    17    19   ar
    31    17    20   ar
    32    18    19   ar
    33    18    22   ar
    34    18    23    1
    35     9    10    1
    36     9    11    1
    37    10    12    1
    38    11     5    1
    39    33    34    1
    40    33    35    1
    41    34    36    1
    42    35    37    1
    43    36    42    1
    44    20    21   ar
    45    21    22   ar
@<TRIPOS>MOLECULE
*****
 43 45 0 0 0
SMALL
GASTEIGER

@<TRIPOS>ATOM
      1 P          22.2832   73.3610   -5.2713 P.3     1  UNL1        0.2189
      2 O          22.6561   74.7954   -5.9200 O.co2   1  UNL1       -0.4371
      3 O          23.4424   72.6100   -4.6849 O.2     1  UNL1       -0.5170
      4 O          21.4764   72.5999   -6.4493 O.3     1  UNL1       -0.3112
      5 C          20.8745   73.3784   -7.4688 C.3     1  UNL1        0.1811
      6 O          20.0263   71.1629   -7.8501 O.3     1  UNL1       -0.3308
      7 O          18.5506   72.3318  -10.1840 O.3     1  UNL1       -0.3794
      8 O          16.6079   72.1602   -8.2780 O.3     1  UNL1       -0.3779
      9 C          18.8314   72.9126   -8.9115 C.3     1  UNL1        0.1713
     10 C          17.9464   72.2990   -7.8467 C.3     1  UNL1        0.1895
     11 C          20.2169   72.4489   -8.4795 C.3     1  UNL1        0.1764
     12 C          18.6247   70.9611   -7.6057 C.3     1  UNL1        0.2383
     13 H          17.6707   72.6138  -10.4809 H       1  UNL1        0.2105
     14 H          16.2203   73.0383   -8.4175 H       1  UNL1        0.2106
     15 O          16.2900   69.6898   -6.6512 O.2     1  UNL1       -0.2464
     16 O          18.0611   69.2060   -2.4239 O.2     1  UNL1       -0.2670
     17 N          18.4487   70.4923   -6.2601 N.ar    1  UNL1       -0.2551
     18 N          17.1739   69.4498   -4.5472 N.ar    1  UNL1       -0.2743
     19 C          17.2370   69.8681   -5.8825 C.ar    1  UNL1        0.3323
     20 C          19.4710   70.6530   -5.3311 C.ar    1  UNL1        0.0869
     21 C          19.3945   70.2497   -4.0611 C.ar    1  UNL1        0.0795
     22 C          18.1623   69.5881   -3.5856 C.ar    1  UNL1        0.2626
     23 H          16.3390   69.0126   -4.2613 H       1  UNL1        0.1734
     24 O          21.1181   73.7321   -4.2140 O.3     1  UNL1       -0.2703
     25 P          21.1978   74.2812   -2.6958 P.3     1  UNL1        0.2208
     26 O          19.7053   74.8444   -2.4260 O.co2   1  UNL1       -0.4371
     27 O          22.2900   75.2842   -2.4608 O.2     1  UNL1       -0.5170
     28 O          21.3029   72.9525   -1.7857 O.3     1  UNL1       -0.2858
     29 O          23.0258   73.3007   -0.1962 O.3     1  UNL1       -0.3258
     30 O          22.0621   69.3917    0.7212 O.3     1  UNL1       -0.3794
     31 O          21.3053   71.4983    2.5205 O.3     1  UNL1       -0.3794
     32 O          22.0748   70.2663   -2.0383 O.3     1  UNL1       -0.3775
     33 C          21.8003   70.7357    0.3082 C.3     1  UNL1        0.1715
     34 C          22.2182   71.6754    1.4408 C.3     1  UNL1        0.1694
     35 C          22.5991   71.0329   -0.9595 C.3     1  UNL1        0.1967
     36 C          22.2183   73.1379    0.9756 C.3     1  UNL1        0.1761
     37 C          22.5744   72.5226   -1.3064 C.3     1  UNL1        0.2704
     38 H          21.5575   69.1964    1.5253 H       1  UNL1        0.2105
     39 H          21.3145   70.5707    2.8044 H       1  UNL1        0.2105
     40 H          22.0962   69.3252   -1.8064 H       1  UNL1        0.2106
     41 O          23.3330   73.2938    3.0833 O.3     1  UNL1       -0.3794
     42 C          22.7824   74.0765    2.0400 C.3     1  UNL1        0.1693
     43 H          23.6961   73.8779    3.7678 H       1  UNL1        0.2105
@<TRIPOS>UNITY_ATOM_ATTR
2 1
charge -1
26 1
charge -1
@<TRIPOS>BOND
     1    25    28    1
     2    25    24    1
     3    25    26    1
     4    25    27    2
     5     1     4    1
     6     1    24    1
     7     1     2    1
     8     1     3    2
     9     6    11    1
    10     6    12    1
    11    29    36    1
    12    29    37    1
    13     7     9    1
    14     7    13    1
    15     8    10    1
    16     8    14    1
    17    28    37    1
    18     4     5    1
    19    30    33    1
    20    30    38    1
    21    31    34    1
    22    31    39    1
    23    32    35    1
    24    32    40    1
    25    41    42    1
    26    41    43    1
    27    15    19    2
    28    16    22    2
    29    17    12    1
    30    17    19   ar
    31    17    20   ar
    32    18    19   ar
    33    18    22   ar
    34    18    23    1
    35     9    10    1
    36     9    11    1
    37    10    12    1
    38    11     5    1
    39    33    34    1
    40    33    35    1
    41    34    36    1
    42    35    37    1
    43    36    42    1
    44    20    21   ar
    45    21    22   ar
@<TRIPOS>MOLECULE
*****
 43 45 0 0 0
SMALL
GASTEIGER

@<TRIPOS>ATOM
      1 P          22.8719   72.0401   -3.5251 P.3     1  UNL1        0.2189
      2 O          24.0124   73.0707   -4.0295 O.co2   1  UNL1       -0.4371
      3 O          23.3643   70.6613   -3.1965 O.2     1  UNL1       -0.5170
      4 O          21.7358   72.1252   -4.6739 O.3     1  UNL1       -0.3112
      5 C          21.5097   73.3710   -5.3101 C.3     1  UNL1        0.1811
      6 O          20.9924   72.7683   -7.5779 O.3     1  UNL1       -0.3308
      7 O          23.3303   74.4721   -8.3664 O.3     1  UNL1       -0.3794
      8 O          21.2057   76.1001   -8.8882 O.3     1  UNL1       -0.3779
      9 C          22.3846   74.6681   -7.3164 C.3     1  UNL1        0.1713
     10 C          21.0544   75.1176   -7.8838 C.3     1  UNL1        0.1895
     11 C          22.0378   73.3025   -6.7364 C.3     1  UNL1        0.1764
     12 C          20.4847   73.8156   -8.4207 C.3     1  UNL1        0.2383
     13 H          23.5674   75.3306   -8.7522 H       1  UNL1        0.2105
     14 H          21.5710   76.9090   -8.4971 H       1  UNL1        0.2106
     15 O          18.8679   72.3765  -10.2354 O.2     1  UNL1       -0.2464
     16 O          14.9899   73.7893   -8.1845 O.2     1  UNL1       -0.2670
     17 N          19.0496   73.7894   -8.3839 N.ar    1  UNL1       -0.2551
     18 N          16.9383   73.0810   -9.2126 N.ar    1  UNL1       -0.2743
     19 C          18.3323   73.0359   -9.3421 C.ar    1  UNL1        0.3323
     20 C          18.3683   74.5050   -7.4054 C.ar    1  UNL1        0.0869
     21 C          17.0386   74.5387   -7.2963 C.ar    1  UNL1        0.0795
     22 C          16.2147   73.7784   -8.2583 C.ar    1  UNL1        0.2626
     23 H          16.4177   72.5639   -9.8695 H       1  UNL1        0.1734
     24 O          22.1946   72.8257   -2.2853 O.3     1  UNL1       -0.2703
     25 P          20.7835   72.6007   -1.5296 P.3     1  UNL1        0.2208
     26 O          20.7077   70.9940   -1.3560 O.co2   1  UNL1       -0.4371
     27 O          19.6040   73.2036   -2.2361 O.2     1  UNL1       -0.5170
     28 O          21.0264   73.1611   -0.0356 O.3     1  UNL1       -0.2858
     29 O          22.9079   74.2757    0.8777 O.3     1  UNL1       -0.3258
     30 O          21.7811   72.0688    4.1808 O.3     1  UNL1       -0.3794
     31 O          21.3325   74.9053    4.1503 O.3     1  UNL1       -0.3794
     32 O          21.5954   70.9069    1.5360 O.3     1  UNL1       -0.3775
     33 C          21.5701   72.8287    2.9876 C.3     1  UNL1        0.1715
     34 C          22.1512   74.2278    3.2011 C.3     1  UNL1        0.1694
     35 C          22.2660   72.1297    1.8212 C.3     1  UNL1        0.1967
     36 C          22.2034   75.0129    1.8836 C.3     1  UNL1        0.1761
     37 C          22.3061   73.0156    0.5747 C.3     1  UNL1        0.2704
     38 H          21.3413   72.5069    4.9252 H       1  UNL1        0.2105
     39 H          21.3075   74.3989    4.9775 H       1  UNL1        0.2105
     40 H          21.5769   70.3549    2.3327 H       1  UNL1        0.2106
     41 O          24.3146   76.1041    2.1301 O.3     1  UNL1       -0.3794
     42 C          22.9232   76.3503    2.0429 C.3     1  UNL1        0.1693
     43 H          24.7857   76.9464    2.2314 H       1  UNL1        0.2105
@<TRIPOS>UNITY_ATOM_ATTR
2 1
charge -1
26 1
charge -1
@<TRIPOS>BOND
     1    25    28    1
     2    25    24    1
     3    25    26    1
     4    25    27    2
     5     1     4    1
     6     1    24    1
     7     1     2    1
     8     1     3    2
     9     6    11    1
    10     6    12    1
    11    29    36    1
    12    29    37    1
    13     7     9    1
    14     7    13    1
    15     8    10    1
    16     8    14    1
    17    28    37    1
    18     4     5    1
    19    30    33    1
    20    30    38    1
    21    31    34    1
    22    31    39    1
    23    32    35    1
    24    32    40    1
    25    41    42    1
    26    41    43    1
    27    15    19    2
    28    16    22    2
    29    17    12    1
    30    17    19   ar
    31    17    20   ar
    32    18    19   ar
    33    18    22   ar
    34    18    23    1
    35     9    10    1
    36     9    11    1
    37    10    12    1
    38    11     5    1
    39    33    34    1
    40    33    35    1
    41    34    36    1
    42    35    37    1
    43    36    42    1
    44    20    21   ar
    45    21    22   ar
@<TRIPOS>MOLECULE
*****
 43 45 0 0 0
SMALL
GASTEIGER

@<TRIPOS>ATOM
      1 P          21.9962   74.9837   -7.9622 P.3     1  UNL1        0.2189
      2 O          21.3234   76.1324   -8.8815 O.co2   1  UNL1       -0.4371
      3 O          23.3893   75.2833   -7.4920 O.2     1  UNL1       -0.5170
      4 O          21.8256   73.6347   -8.8392 O.3     1  UNL1       -0.3112
      5 C          21.3615   72.4623   -8.1929 C.3     1  UNL1        0.1811
      6 O          19.7941   70.6485   -8.3583 O.3     1  UNL1       -0.3308
      7 O          18.4525   72.2510  -10.5084 O.3     1  UNL1       -0.3794
      8 O          16.8605   72.7117   -8.3428 O.3     1  UNL1       -0.3779
      9 C          19.0897   72.6997   -9.3135 C.3     1  UNL1        0.1713
     10 C          18.2195   72.4023   -8.1101 C.3     1  UNL1        0.1895
     11 C          20.2973   71.8055   -9.0615 C.3     1  UNL1        0.1764
     12 C          18.4547   70.9146   -7.9112 C.3     1  UNL1        0.2383
     13 H          17.6782   72.8072  -10.6902 H       1  UNL1        0.2105
     14 H          16.7628   73.6692   -8.4630 H       1  UNL1        0.2106
     15 O          16.0914   69.9037   -6.7403 O.2     1  UNL1       -0.2464
     16 O          18.1125   69.4358   -2.6248 O.2     1  UNL1       -0.2670
     17 N          18.3353   70.5204   -6.5358 N.ar    1  UNL1       -0.2551
     18 N          17.0997   69.6714   -4.6921 N.ar    1  UNL1       -0.2743
     19 C          17.1034   70.0262   -6.0471 C.ar    1  UNL1        0.3323
     20 C          19.4320   70.6251   -5.6871 C.ar    1  UNL1        0.0869
     21 C          19.4117   70.2837   -4.3971 C.ar    1  UNL1        0.0795
     22 C          18.1632   69.7583   -3.8077 C.ar    1  UNL1        0.2626
     23 H          16.2522   69.3249   -4.3295 H       1  UNL1        0.1734
     24 O          20.9143   74.7861   -6.7776 O.3     1  UNL1       -0.2703
     25 P          20.9495   75.2283   -5.2232 P.3     1  UNL1        0.2208
     26 O          19.3838   75.3810   -4.8452 O.co2   1  UNL1       -0.4371
     27 O          21.7747   76.4524   -4.9501 O.2     1  UNL1       -0.5170
     28 O          21.4325   73.9062   -4.4333 O.3     1  UNL1       -0.2858
     29 O          21.3447   74.2473   -2.0896 O.3     1  UNL1       -0.3258
     30 O          23.2775   70.5988   -2.1535 O.3     1  UNL1       -0.3794
     31 O          20.5391   70.7380   -1.2992 O.3     1  UNL1       -0.3794
     32 O          23.8989   72.5972   -4.1534 O.3     1  UNL1       -0.3775
     33 C          22.3520   71.5911   -2.6055 C.3     1  UNL1        0.1715
     34 C          21.3695   71.8833   -1.4696 C.3     1  UNL1        0.1694
     35 C          23.1216   72.8537   -2.9887 C.3     1  UNL1        0.1967
     36 C          20.5163   73.1206   -1.7797 C.3     1  UNL1        0.1761
     37 C          22.1822   74.0370   -3.2282 C.3     1  UNL1        0.2704
     38 H          22.7952   69.7943   -1.9091 H       1  UNL1        0.2105
     39 H          21.0901   69.9637   -1.1044 H       1  UNL1        0.2105
     40 H          24.4896   71.8464   -3.9889 H       1  UNL1        0.2106
     41 O          20.4529   74.1782    0.3618 O.3     1  UNL1       -0.3794
     42 C          19.6408   73.5231   -0.5950 C.3     1  UNL1        0.1693
     43 H          19.9089   74.4405    1.1215 H       1  UNL1        0.2105
@<TRIPOS>UNITY_ATOM_ATTR
2 1
charge -1
26 1
charge -1
@<TRIPOS>BOND
     1    25    28    1
     2    25    24    1
     3    25    26    1
     4    25    27    2
     5     1     4    1
     6     1    24    1
     7     1     2    1
     8     1     3    2
     9     6    11    1
    10     6    12    1
    11    29    36    1
    12    29    37    1
    13     7     9    1
    14     7    13    1
    15     8    10    1
    16     8    14    1
    17    28    37    1
    18     4     5    1
    19    30    33    1
    20    30    38    1
    21    31    34    1
    22    31    39    1
    23    32    35    1
    24    32    40    1
    25    41    42    1
    26    41    43    1
    27    15    19    2
    28    16    22    2
    29    17    12    1
    30    17    19   ar
    31    17    20   ar
    32    18    19   ar
    33    18    22   ar
    34    18    23    1
    35     9    10    1
    36     9    11    1
    37    10    12    1
    38    11     5    1
    39    33    34    1
    40    33    35    1
    41    34    36    1
    42    35    37    1
    43    36    42    1
    44    20    21   ar
    45    21    22   ar
@<TRIPOS>MOLECULE
*****
 43 45 0 0 0
SMALL
GASTEIGER

@<TRIPOS>ATOM
      1 P          22.3989   72.9665   -3.6255 P.3     1  UNL1        0.2189
      2 O          23.9163   72.6741   -4.1045 O.co2   1  UNL1       -0.4371
      3 O          22.2057   73.0355   -2.1391 O.2     1  UNL1       -0.5170
      4 O          21.5252   71.8438   -4.3963 O.3     1  UNL1       -0.3112
      5 C          20.8022   70.9015   -3.6235 C.3     1  UNL1        0.1811
      6 O          18.9309   71.9458   -4.7104 O.3     1  UNL1       -0.3308
      7 O          17.2645   70.8726   -2.4604 O.3     1  UNL1       -0.3794
      8 O          16.7530   69.1062   -4.4740 O.3     1  UNL1       -0.3779
      9 C          18.3880   70.2824   -3.1122 C.3     1  UNL1        0.1713
     10 C          17.9949   69.7801   -4.4858 C.3     1  UNL1        0.1895
     11 C          19.3724   71.3952   -3.4501 C.3     1  UNL1        0.1764
     12 C          17.9540   71.0671   -5.2921 C.3     1  UNL1        0.2383
     13 H          16.6220   70.1812   -2.2345 H       1  UNL1        0.2105
     14 H          16.8304   68.2945   -3.9487 H       1  UNL1        0.2106
     15 O          16.0564   70.5368   -7.3160 O.2     1  UNL1       -0.2464
     16 O          19.3185   70.2795  -10.5616 O.2     1  UNL1       -0.2670
     17 N          18.2797   70.8578   -6.6747 N.ar    1  UNL1       -0.2551
     18 N          17.6822   70.4093   -8.9304 N.ar    1  UNL1       -0.2743
     19 C          17.2519   70.5973   -7.6108 C.ar    1  UNL1        0.3323
     20 C          19.6057   70.9122   -7.0902 C.ar    1  UNL1        0.0869
     21 C          19.9996   70.7293   -8.3522 C.ar    1  UNL1        0.0795
     22 C          18.9881   70.4523   -9.3924 C.ar    1  UNL1        0.2626
     23 H          16.9837   70.2261   -9.5999 H       1  UNL1        0.1734
     24 O          22.0236   74.3253   -4.4165 O.3     1  UNL1       -0.2703
     25 P          22.4854   74.8720   -5.8659 P.3     1  UNL1        0.2208
     26 O          22.5545   73.5284   -6.7645 O.co2   1  UNL1       -0.4371
     27 O          23.7571   75.6698   -5.8460 O.2     1  UNL1       -0.5170
     28 O          21.2020   75.6730   -6.4283 O.3     1  UNL1       -0.2858
     29 O          22.1263   77.2636   -7.9225 O.3     1  UNL1       -0.3258
     30 O          23.2038   73.8002   -9.8961 O.3     1  UNL1       -0.3794
     31 O          25.2119   75.3444   -8.5428 O.3     1  UNL1       -0.3794
     32 O          20.6279   73.9744   -8.5870 O.3     1  UNL1       -0.3775
     33 C          22.9416   74.6221   -8.7554 C.3     1  UNL1        0.1715
     34 C          23.8930   75.8195   -8.7982 C.3     1  UNL1        0.1694
     35 C          21.4878   75.0887   -8.7999 C.3     1  UNL1        0.1967
     36 C          23.4967   76.8792   -7.7614 C.3     1  UNL1        0.1761
     37 C          21.2119   76.1774   -7.7612 C.3     1  UNL1        0.2704
     38 H          24.1252   73.5002   -9.8736 H       1  UNL1        0.2105
     39 H          25.4496   74.6755   -9.2041 H       1  UNL1        0.2105
     40 H          20.8121   73.2924   -9.2509 H       1  UNL1        0.2106
     41 O          23.7764   78.9520   -8.9166 O.3     1  UNL1       -0.3794
     42 C          24.3345   78.1493   -7.8927 C.3     1  UNL1        0.1693
     43 H          24.2992   79.7640   -9.0113 H       1  UNL1        0.2105
@<TRIPOS>UNITY_ATOM_ATTR
2 1
charge -1
26 1
charge -1
@<TRIPOS>BOND
     1    25    28    1
     2    25    24    1
     3    25    26    1
     4    25    27    2
     5     1     4    1
     6     1    24    1
     7     1     2    1
     8     1     3    2
     9     6    11    1
    10     6    12    1
    11    29    36    1
    12    29    37    1
    13     7     9    1
    14     7    13    1
    15     8    10    1
    16     8    14    1
    17    28    37    1
    18     4     5    1
    19    30    33    1
    20    30    38    1
    21    31    34    1
    22    31    39    1
    23    32    35    1
    24    32    40    1
    25    41    42    1
    26    41    43    1
    27    15    19    2
    28    16    22    2
    29    17    12    1
    30    17    19   ar
    31    17    20   ar
    32    18    19   ar
    33    18    22   ar
    34    18    23    1
    35     9    10    1
    36     9    11    1
    37    10    12    1
    38    11     5    1
    39    33    34    1
    40    33    35    1
    41    34    36    1
    42    35    37    1
    43    36    42    1
    44    20    21   ar
    45    21    22   ar
@<TRIPOS>MOLECULE
*****
 43 45 0 0 0
SMALL
GASTEIGER

@<TRIPOS>ATOM
      1 P          21.6682   72.9940   -5.1183 P.3     1  UNL1        0.2189
      2 O          21.0057   74.4685   -5.0513 O.co2   1  UNL1       -0.4371
      3 O          23.1262   72.9699   -5.4718 O.2     1  UNL1       -0.5170
      4 O          20.6904   72.1738   -6.1128 O.3     1  UNL1       -0.3112
      5 C          20.9366   72.2367   -7.5068 C.3     1  UNL1        0.1811
      6 O          18.6298   71.5645   -7.5259 O.3     1  UNL1       -0.3308
      7 O          19.0673   70.8110  -10.3950 O.3     1  UNL1       -0.3794
      8 O          17.8033   73.2188  -10.5988 O.3     1  UNL1       -0.3779
      9 C          19.6150   71.9007   -9.6547 C.3     1  UNL1        0.1713
     10 C          18.5635   72.9680   -9.4344 C.3     1  UNL1        0.1895
     11 C          19.8798   71.4170   -8.2344 C.3     1  UNL1        0.1764
     12 C          17.7339   72.3663   -8.3129 C.3     1  UNL1        0.2383
     13 H          18.8901   71.0958  -11.3058 H       1  UNL1        0.2105
     14 H          18.3753   73.6010  -11.2825 H       1  UNL1        0.2106
     15 O          15.1901   73.5153   -8.7449 O.2     1  UNL1       -0.2464
     16 O          15.5679   76.2009   -5.0184 O.2     1  UNL1       -0.2670
     17 N          17.1426   73.3677   -7.4710 N.ar    1  UNL1       -0.2551
     18 N          15.3802   74.8515   -6.8889 N.ar    1  UNL1       -0.2743
     19 C          15.8602   73.8800   -7.7765 C.ar    1  UNL1        0.3323
     20 C          17.8327   73.8315   -6.3563 C.ar    1  UNL1        0.0869
     21 C          17.3616   74.7593   -5.5205 C.ar    1  UNL1        0.0795
     22 C          16.0288   75.3459   -5.7684 C.ar    1  UNL1        0.2626
     23 H          14.4889   75.2230   -7.0821 H       1  UNL1        0.1734
     24 O          21.3171   72.3715   -3.6685 O.3     1  UNL1       -0.2703
     25 P          21.6321   70.9193   -3.0322 P.3     1  UNL1        0.2208
     26 O          23.2294   70.7632   -3.2366 O.co2   1  UNL1       -0.4371
     27 O          20.8205   69.8010   -3.6194 O.2     1  UNL1       -0.5170
     28 O          21.4422   71.1201   -1.4421 O.3     1  UNL1       -0.2858
     29 O          23.0207   72.7154   -0.6806 O.3     1  UNL1       -0.3258
     30 O          21.4126   71.5920    2.9530 O.3     1  UNL1       -0.3794
     31 O          20.7826   74.1722    1.8605 O.3     1  UNL1       -0.3794
     32 O          21.8411   69.6086    0.8885 O.3     1  UNL1       -0.3775
     33 C          21.3921   71.8800    1.5523 C.3     1  UNL1        0.1715
     34 C          21.8198   73.3358    1.3557 C.3     1  UNL1        0.1694
     35 C          22.3542   70.9354    0.8343 C.3     1  UNL1        0.1967
     36 C          22.0796   73.6416   -0.1255 C.3     1  UNL1        0.1761
     37 C          22.5810   71.3572   -0.6185 C.3     1  UNL1        0.2704
     38 H          20.8034   72.1880    3.4147 H       1  UNL1        0.2105
     39 H          20.6281   73.9687    2.7964 H       1  UNL1        0.2105
     40 H          21.7022   69.3533    1.8134 H       1  UNL1        0.2106
     41 O          23.0570   75.5482    0.9321 O.3     1  UNL1       -0.3794
     42 C          22.6580   75.0404   -0.3278 C.3     1  UNL1        0.1693
     43 H          23.4274   76.4380    0.8188 H       1  UNL1        0.2105
@<TRIPOS>UNITY_ATOM_ATTR
2 1
charge -1
26 1
charge -1
@<TRIPOS>BOND
     1    25    28    1
     2    25    24    1
     3    25    26    1
     4    25    27    2
     5     1     4    1
     6     1    24    1
     7     1     2    1
     8     1     3    2
     9     6    11    1
    10     6    12    1
    11    29    36    1
    12    29    37    1
    13     7     9    1
    14     7    13    1
    15     8    10    1
    16     8    14    1
    17    28    37    1
    18     4     5    1
    19    30    33    1
    20    30    38    1
    21    31    34    1
    22    31    39    1
    23    32    35    1
    24    32    40    1
    25    41    42    1
    26    41    43    1
    27    15    19    2
    28    16    22    2
    29    17    12    1
    30    17    19   ar
    31    17    20   ar
    32    18    19   ar
    33    18    22   ar
    34    18    23    1
    35     9    10    1
    36     9    11    1
    37    10    12    1
    38    11     5    1
    39    33    34    1
    40    33    35    1
    41    34    36    1
    42    35    37    1
    43    36    42    1
    44    20    21   ar
    45    21    22   ar
@<TRIPOS>MOLECULE
*****
 43 45 0 0 0
SMALL
GASTEIGER

@<TRIPOS>ATOM
      1 P          22.7678   74.9963   -8.1125 P.3     1  UNL1        0.2189
      2 O          21.9203   76.0802   -8.9636 O.co2   1  UNL1       -0.4371
      3 O          24.1450   74.7149   -8.6374 O.2     1  UNL1       -0.5170
      4 O          21.7786   73.7196   -8.0151 O.3     1  UNL1       -0.3112
      5 C          20.3831   73.9505   -7.9296 C.3     1  UNL1        0.1811
      6 O          19.5885   71.7500   -8.4773 O.3     1  UNL1       -0.3308
      7 O          17.8720   73.0870  -10.5406 O.3     1  UNL1       -0.3794
      8 O          16.1108   72.6263   -8.5102 O.3     1  UNL1       -0.3779
      9 C          18.2408   73.5437   -9.2403 C.3     1  UNL1        0.1713
     10 C          17.4757   72.7813   -8.1786 C.3     1  UNL1        0.1895
     11 C          19.6751   73.1024   -8.9772 C.3     1  UNL1        0.1764
     12 C          18.2221   71.4586   -8.1411 C.3     1  UNL1        0.2383
     13 H          16.9596   73.3573  -10.7313 H       1  UNL1        0.2105
     14 H          15.6799   73.4951   -8.5211 H       1  UNL1        0.2106
     15 O          15.9996   70.0536   -7.1094 O.2     1  UNL1       -0.2464
     16 O          18.1807   69.1423   -3.1529 O.2     1  UNL1       -0.2670
     17 N          18.1820   70.8437   -6.8443 N.ar    1  UNL1       -0.2551
     18 N          17.0875   69.6008   -5.1402 N.ar    1  UNL1       -0.2743
     19 C          17.0167   70.1627   -6.4214 C.ar    1  UNL1        0.3323
     20 C          19.2897   70.9191   -6.0070 C.ar    1  UNL1        0.0869
     21 C          19.3407   70.3791   -4.7876 C.ar    1  UNL1        0.0795
     22 C          18.1650   69.6499   -4.2700 C.ar    1  UNL1        0.2626
     23 H          16.2872   69.1218   -4.8243 H       1  UNL1        0.1734
     24 O          22.7295   75.6007   -6.6138 O.3     1  UNL1       -0.2703
     25 P          22.7262   74.8674   -5.1732 P.3     1  UNL1        0.2208
     26 O          23.0649   73.3284   -5.5395 O.co2   1  UNL1       -0.4371
     27 O          21.4583   75.0532   -4.3910 O.2     1  UNL1       -0.5170
     28 O          24.0537   75.4123   -4.4344 O.3     1  UNL1       -0.2858
     29 O          26.1563   74.4329   -3.9479 O.3     1  UNL1       -0.3258
     30 O          25.5234   76.4369   -0.3934 O.3     1  UNL1       -0.3794
     31 O          27.4945   77.4130   -2.2399 O.3     1  UNL1       -0.3794
     32 O          23.3067   75.1534   -1.7419 O.3     1  UNL1       -0.3775
     33 C          25.4551   76.2403   -1.8083 C.3     1  UNL1        0.1715
     34 C          26.8830   76.1305   -2.3467 C.3     1  UNL1        0.1694
     35 C          24.6717   74.9611   -2.0973 C.3     1  UNL1        0.1967
     36 C          26.8899   75.6550   -3.8058 C.3     1  UNL1        0.1761
     37 C          24.7842   74.5496   -3.5663 C.3     1  UNL1        0.2704
     38 H          26.0192   77.2477   -0.2031 H       1  UNL1        0.2105
     39 H          27.4833   77.7019   -1.3139 H       1  UNL1        0.2105
     40 H          23.2490   75.4132   -0.8097 H       1  UNL1        0.2106
     41 O          28.2305   74.4709   -5.3899 O.3     1  UNL1       -0.3794
     42 C          28.3050   75.3873   -4.3135 C.3     1  UNL1        0.1693
     43 H          29.1240   74.2914   -5.7234 H       1  UNL1        0.2105
@<TRIPOS>UNITY_ATOM_ATTR
2 1
charge -1
26 1
charge -1
@<TRIPOS>BOND
     1    25    28    1
     2    25    24    1
     3    25    26    1
     4    25    27    2
     5     1     4    1
     6     1    24    1
     7     1     2    1
     8     1     3    2
     9     6    11    1
    10     6    12    1
    11    29    36    1
    12    29    37    1
    13     7     9    1
    14     7    13    1
    15     8    10    1
    16     8    14    1
    17    28    37    1
    18     4     5    1
    19    30    33    1
    20    30    38    1
    21    31    34    1
    22    31    39    1
    23    32    35    1
    24    32    40    1
    25    41    42    1
    26    41    43    1
    27    15    19    2
    28    16    22    2
    29    17    12    1
    30    17    19   ar
    31    17    20   ar
    32    18    19   ar
    33    18    22   ar
    34    18    23    1
    35     9    10    1
    36     9    11    1
    37    10    12    1
    38    11     5    1
    39    33    34    1
    40    33    35    1
    41    34    36    1
    42    35    37    1
    43    36    42    1
    44    20    21   ar
    45    21    22   ar
@<TRIPOS>MOLECULE
*****
 43 45 0 0 0
SMALL
GASTEIGER

@<TRIPOS>ATOM
      1 P          20.3390   69.9907   -2.2054 P.3     1  UNL1        0.2189
      2 O          21.6060   69.4869   -3.0762 O.co2   1  UNL1       -0.4371
      3 O          19.0511   69.2743   -2.4873 O.2     1  UNL1       -0.5170
      4 O          20.3184   71.5915   -2.4397 O.3     1  UNL1       -0.3112
      5 C          19.7322   72.0934   -3.6282 C.3     1  UNL1        0.1811
      6 O          19.9624   71.5711   -5.9623 O.3     1  UNL1       -0.3308
      7 O          22.6831   72.8183   -5.7811 O.3     1  UNL1       -0.3794
      8 O          21.1975   74.7968   -6.9278 O.3     1  UNL1       -0.3779
      9 C          21.4738   73.1917   -5.1226 C.3     1  UNL1        0.1713
     10 C          20.5318   73.8677   -6.0969 C.3     1  UNL1        0.1895
     11 C          20.7141   71.9167   -4.7783 C.3     1  UNL1        0.1764
     12 C          19.9765   72.6842   -6.8709 C.3     1  UNL1        0.2383
     13 H          23.1858   73.6162   -6.0106 H       1  UNL1        0.2105
     14 H          21.5324   75.5305   -6.3891 H       1  UNL1        0.2106
     15 O          19.3162   73.3022   -9.5467 O.2     1  UNL1       -0.2464
     16 O          14.8193   73.5587   -8.5703 O.2     1  UNL1       -0.2670
     17 N          18.6410   72.9170   -7.3438 N.ar    1  UNL1       -0.2551
     18 N          17.0776   73.4292   -9.0584 N.ar    1  UNL1       -0.2743
     19 C          18.4175   73.2214   -8.7068 C.ar    1  UNL1        0.3323
     20 C          17.5700   72.8422   -6.4599 C.ar    1  UNL1        0.0869
     21 C          16.2983   73.0444   -6.8108 C.ar    1  UNL1        0.0795
     22 C          15.9786   73.3673   -8.2163 C.ar    1  UNL1        0.2626
     23 H          16.8978   73.6431  -10.0027 H       1  UNL1        0.1734
     24 O          20.8661   69.8531   -0.6835 O.3     1  UNL1       -0.2703
     25 P          22.1188   70.5405    0.0723 P.3     1  UNL1        0.2208
     26 O          22.9765   71.1827   -1.1399 O.co2   1  UNL1       -0.4371
     27 O          22.8955   69.6045    0.9524 O.2     1  UNL1       -0.5170
     28 O          21.4854   71.8105    0.8409 O.3     1  UNL1       -0.2858
     29 O          23.0422   73.5705    1.1491 O.3     1  UNL1       -0.3258
     30 O          20.0193   74.9242    3.6150 O.3     1  UNL1       -0.3794
     31 O          20.4997   76.2394    1.1075 O.3     1  UNL1       -0.3794
     32 O          20.6307   72.0971    3.4985 O.3     1  UNL1       -0.3775
     33 C          20.5716   74.2732    2.4676 C.3     1  UNL1        0.1715
     34 C          21.3979   75.2970    1.6867 C.3     1  UNL1        0.1694
     35 C          21.4503   73.1114    2.9276 C.3     1  UNL1        0.1967
     36 C          22.2354   74.6167    0.5955 C.3     1  UNL1        0.1761
     37 C          22.2777   72.5385    1.7755 C.3     1  UNL1        0.2704
     38 H          19.4599   75.6626    3.3299 H       1  UNL1        0.2105
     39 H          19.9765   76.6614    1.8071 H       1  UNL1        0.2105
     40 H          20.1123   72.4724    4.2267 H       1  UNL1        0.2106
     41 O          24.4279   74.9500   -0.2937 O.3     1  UNL1       -0.3794
     42 C          23.1848   75.5963   -0.0909 C.3     1  UNL1        0.1693
     43 H          25.0422   75.5615   -0.7302 H       1  UNL1        0.2105
@<TRIPOS>UNITY_ATOM_ATTR
2 1
charge -1
26 1
charge -1
@<TRIPOS>BOND
     1    25    28    1
     2    25    24    1
     3    25    26    1
     4    25    27    2
     5     1     4    1
     6     1    24    1
     7     1     2    1
     8     1     3    2
     9     6    11    1
    10     6    12    1
    11    29    36    1
    12    29    37    1
    13     7     9    1
    14     7    13    1
    15     8    10    1
    16     8    14    1
    17    28    37    1
    18     4     5    1
    19    30    33    1
    20    30    38    1
    21    31    34    1
    22    31    39    1
    23    32    35    1
    24    32    40    1
    25    41    42    1
    26    41    43    1
    27    15    19    2
    28    16    22    2
    29    17    12    1
    30    17    19   ar
    31    17    20   ar
    32    18    19   ar
    33    18    22   ar
    34    18    23    1
    35     9    10    1
    36     9    11    1
    37    10    12    1
    38    11     5    1
    39    33    34    1
    40    33    35    1
    41    34    36    1
    42    35    37    1
    43    36    42    1
    44    20    21   ar
    45    21    22   ar
@<TRIPOS>MOLECULE
*****
 43 45 0 0 0
SMALL
GASTEIGER

@<TRIPOS>ATOM
      1 P          17.8782   72.8144   -2.3123 P.3     1  UNL1        0.2189
      2 O          18.0084   74.3345   -2.8507 O.co2   1  UNL1       -0.4371
      3 O          16.6340   72.5252   -1.5251 O.2     1  UNL1       -0.5170
      4 O          19.2754   72.5554   -1.5386 O.3     1  UNL1       -0.3112
      5 C          20.3603   73.4313   -1.7906 C.3     1  UNL1        0.1811
      6 O          22.3687   73.0016   -0.5433 O.3     1  UNL1       -0.3308
      7 O          22.6147   70.4907   -2.1636 O.3     1  UNL1       -0.3794
      8 O          21.6009   69.5775    0.1975 O.3     1  UNL1       -0.3779
      9 C          21.4416   71.1316   -1.6655 C.3     1  UNL1        0.1713
     10 C          21.3156   70.9111   -0.1724 C.3     1  UNL1        0.1895
     11 C          21.6588   72.6374   -1.7474 C.3     1  UNL1        0.1764
     12 C          22.3286   71.9002    0.3787 C.3     1  UNL1        0.2383
     13 H          22.4996   69.5279   -2.1216 H       1  UNL1        0.2105
     14 H          20.9287   68.9871   -0.1770 H       1  UNL1        0.2106
     15 O          23.0931   70.6934    2.8153 O.2     1  UNL1       -0.2464
     16 O          20.8678   73.8739    5.3000 O.2     1  UNL1       -0.2670
     17 N          21.9633   72.3921    1.6772 N.ar    1  UNL1       -0.2551
     18 N          21.9846   72.2782    4.0505 N.ar    1  UNL1       -0.2743
     19 C          22.3983   71.7115    2.8382 C.ar    1  UNL1        0.3323
     20 C          21.1826   73.5373    1.7899 C.ar    1  UNL1        0.0869
     21 C          20.7956   74.0642    2.9535 C.ar    1  UNL1        0.0795
     22 C          21.2075   73.4139    4.2143 C.ar    1  UNL1        0.2626
     23 H          22.2754   71.8208    4.8728 H       1  UNL1        0.1734
     24 O          18.0409   71.9364   -3.6598 O.3     1  UNL1       -0.2703
     25 P          16.9374   71.2282   -4.6050 P.3     1  UNL1        0.2208
     26 O          15.6248   72.1513   -4.3988 O.co2   1  UNL1       -0.4371
     27 O          16.7217   69.7712   -4.3139 O.2     1  UNL1       -0.5170
     28 O          17.4257   71.5443   -6.1106 O.3     1  UNL1       -0.2858
     29 O          19.4430   71.2195   -7.3112 O.3     1  UNL1       -0.3258
     30 O          18.5596   75.0638   -8.5328 O.3     1  UNL1       -0.3794
     31 O          18.2470   72.8833  -10.3756 O.3     1  UNL1       -0.3794
     32 O          18.0455   74.2634   -5.7989 O.3     1  UNL1       -0.3775
     33 C          18.2630   73.7223   -8.1358 C.3     1  UNL1        0.1715
     34 C          18.9295   72.7693   -9.1300 C.3     1  UNL1        0.1694
     35 C          18.7999   73.4890   -6.7249 C.3     1  UNL1        0.1967
     36 C          18.8826   71.3208   -8.6255 C.3     1  UNL1        0.1761
     37 C          18.7532   72.0091   -6.3403 C.3     1  UNL1        0.2704
     38 H          18.2209   75.2186   -9.4277 H       1  UNL1        0.2105
     39 H          18.2836   73.8028  -10.6828 H       1  UNL1        0.2105
     40 H          18.0831   75.1982   -6.0531 H       1  UNL1        0.2106
     41 O          18.9534   70.1800  -10.7238 O.3     1  UNL1       -0.3794
     42 C          19.6784   70.3763   -9.5237 C.3     1  UNL1        0.1693
     43 H          19.4481   69.5811  -11.3054 H       1  UNL1        0.2105
@<TRIPOS>UNITY_ATOM_ATTR
2 1
charge -1
26 1
charge -1
@<TRIPOS>BOND
     1    25    28    1
     2    25    24    1
     3    25    26    1
     4    25    27    2
     5     1     4    1
     6     1    24    1
     7     1     2    1
     8     1     3    2
     9     6    11    1
    10     6    12    1
    11    29    36    1
    12    29    37    1
    13     7     9    1
    14     7    13    1
    15     8    10    1
    16     8    14    1
    17    28    37    1
    18     4     5    1
    19    30    33    1
    20    30    38    1
    21    31    34    1
    22    31    39    1
    23    32    35    1
    24    32    40    1
    25    41    42    1
    26    41    43    1
    27    15    19    2
    28    16    22    2
    29    17    12    1
    30    17    19   ar
    31    17    20   ar
    32    18    19   ar
    33    18    22   ar
    34    18    23    1
    35     9    10    1
    36     9    11    1
    37    10    12    1
    38    11     5    1
    39    33    34    1
    40    33    35    1
    41    34    36    1
    42    35    37    1
    43    36    42    1
    44    20    21   ar
    45    21    22   ar
@<TRIPOS>MOLECULE
*****
 43 45 0 0 0
SMALL
GASTEIGER

@<TRIPOS>ATOM
      1 P          21.6907   73.2397   -5.0436 P.3     1  UNL1        0.2189
      2 O          20.9940   74.6935   -4.9071 O.co2   1  UNL1       -0.4371
      3 O          23.1197   73.2621   -5.5005 O.2     1  UNL1       -0.5170
      4 O          20.6673   72.4047   -5.9781 O.3     1  UNL1       -0.3112
      5 C          20.8709   72.4144   -7.3804 C.3     1  UNL1        0.1811
      6 O          18.5313   71.8667   -7.3933 O.3     1  UNL1       -0.3308
      7 O          18.9930   70.7778  -10.1487 O.3     1  UNL1       -0.3794
      8 O          17.8699   73.2113  -10.6517 O.3     1  UNL1       -0.3779
      9 C          19.5831   71.9124   -9.5164 C.3     1  UNL1        0.1713
     10 C          18.5877   73.0515   -9.4451 C.3     1  UNL1        0.1895
     11 C          19.7874   71.5759   -8.0445 C.3     1  UNL1        0.1764
     12 C          17.7000   72.6223   -8.2892 C.3     1  UNL1        0.2383
     13 H          18.8532   70.9687  -11.0899 H       1  UNL1        0.2105
     14 H          18.4781   73.4846  -11.3561 H       1  UNL1        0.2106
     15 O          15.0508   73.5529   -8.5958 O.2     1  UNL1       -0.2464
     16 O          15.6836   76.9226   -5.5160 O.2     1  UNL1       -0.2670
     17 N          17.1458   73.7407   -7.5796 N.ar    1  UNL1       -0.2551
     18 N          15.3680   75.2299   -7.0619 N.ar    1  UNL1       -0.2743
     19 C          15.8045   74.1271   -7.8072 C.ar    1  UNL1        0.3323
     20 C          17.9299   74.4414   -6.6695 C.ar    1  UNL1        0.0869
     21 C          17.4990   75.4916   -5.9677 C.ar    1  UNL1        0.0795
     22 C          16.1095   75.9599   -6.1465 C.ar    1  UNL1        0.2626
     23 H          14.4369   75.5174   -7.2043 H       1  UNL1        0.1734
     24 O          21.4618   72.5883   -3.5820 O.3     1  UNL1       -0.2703
     25 P          21.8125   71.1184   -3.0081 P.3     1  UNL1        0.2208
     26 O          21.5575   71.2704   -1.4177 O.co2   1  UNL1       -0.4371
     27 O          23.1839   70.6271   -3.3713 O.2     1  UNL1       -0.5170
     28 O          20.6065   70.1792   -3.5264 O.3     1  UNL1       -0.2858
     29 O          18.7919   71.1327   -2.3372 O.3     1  UNL1       -0.3258
     30 O          16.6923   68.5658   -4.7976 O.3     1  UNL1       -0.3794
     31 O          16.5962   71.3942   -5.2867 O.3     1  UNL1       -0.3794
     32 O          19.2296   67.7385   -3.6764 O.3     1  UNL1       -0.3775
     33 C          17.7457   69.4696   -4.4527 C.3     1  UNL1        0.1715
     34 C          17.1211   70.8193   -4.0933 C.3     1  UNL1        0.1694
     35 C          18.5209   68.9026   -3.2649 C.3     1  UNL1        0.1967
     36 C          18.1566   71.7575   -3.4587 C.3     1  UNL1        0.1761
     37 C          19.4881   69.9324   -2.6782 C.3     1  UNL1        0.2704
     38 H          16.1964   68.9198   -5.5515 H       1  UNL1        0.2105
     39 H          15.9440   70.7917   -5.6776 H       1  UNL1        0.2105
     40 H          18.6063   67.0943   -4.0456 H       1  UNL1        0.2106
     41 O          18.4769   73.7416   -2.1666 O.3     1  UNL1       -0.3794
     42 C          17.5215   73.0493   -2.9491 C.3     1  UNL1        0.1693
     43 H          18.0866   74.5662   -1.8358 H       1  UNL1        0.2105
@<TRIPOS>UNITY_ATOM_ATTR
2 1
charge -1
26 1
charge -1
@<TRIPOS>BOND
     1    25    28    1
     2    25    24    1
     3    25    26    1
     4    25    27    2
     5     1     4    1
     6     1    24    1
     7     1     2    1
     8     1     3    2
     9     6    11    1
    10     6    12    1
    11    29    36    1
    12    29    37    1
    13     7     9    1
    14     7    13    1
    15     8    10    1
    16     8    14    1
    17    28    37    1
    18     4     5    1
    19    30    33    1
    20    30    38    1
    21    31    34    1
    22    31    39    1
    23    32    35    1
    24    32    40    1
    25    41    42    1
    26    41    43    1
    27    15    19    2
    28    16    22    2
    29    17    12    1
    30    17    19   ar
    31    17    20   ar
    32    18    19   ar
    33    18    22   ar
    34    18    23    1
    35     9    10    1
    36     9    11    1
    37    10    12    1
    38    11     5    1
    39    33    34    1
    40    33    35    1
    41    34    36    1
    42    35    37    1
    43    36    42    1
    44    20    21   ar
    45    21    22   ar
@<TRIPOS>MOLECULE
*****
 43 45 0 0 0
SMALL
GASTEIGER

@<TRIPOS>ATOM
      1 P          19.4635   70.9514   -4.3302 P.3     1  UNL1        0.2189
      2 O          19.5077   69.3377   -4.4372 O.co2   1  UNL1       -0.4371
      3 O          18.3431   71.5008   -3.4970 O.2     1  UNL1       -0.5170
      4 O          19.5003   71.4440   -5.8709 O.3     1  UNL1       -0.3112
      5 C          18.4314   71.0744   -6.7246 C.3     1  UNL1        0.1811
      6 O          18.5682   73.4475   -7.0760 O.3     1  UNL1       -0.3308
      7 O          16.0247   73.1738   -8.6401 O.3     1  UNL1       -0.3794
      8 O          17.9147   73.3228  -10.6002 O.3     1  UNL1       -0.3779
      9 C          17.1300   72.2762   -8.5508 C.3     1  UNL1        0.1713
     10 C          18.3055   72.8091   -9.3432 C.3     1  UNL1        0.1895
     11 C          17.6602   72.3252   -7.1233 C.3     1  UNL1        0.1764
     12 C          18.8494   73.8829   -8.4162 C.3     1  UNL1        0.2383
     13 H          15.6689   73.1595   -9.5429 H       1  UNL1        0.2105
     14 H          17.5760   72.6016  -11.1533 H       1  UNL1        0.2106
     15 O          20.6672   71.8144   -9.0446 O.2     1  UNL1       -0.2464
     16 O          24.2637   74.6946   -8.9412 O.2     1  UNL1       -0.2670
     17 N          20.2664   74.0642   -8.5600 N.ar    1  UNL1       -0.2551
     18 N          22.4565   73.2502   -8.9928 N.ar    1  UNL1       -0.2743
     19 C          21.0912   72.9596   -8.8762 C.ar    1  UNL1        0.3323
     20 C          20.8245   75.3263   -8.3883 C.ar    1  UNL1        0.0869
     21 C          22.1286   75.5866   -8.5017 C.ar    1  UNL1        0.0795
     22 C          23.0593   74.4875   -8.8302 C.ar    1  UNL1        0.2626
     23 H          23.0504   72.4960   -9.2121 H       1  UNL1        0.1734
     24 O          20.9435   71.3208   -3.7952 O.3     1  UNL1       -0.2703
     25 P          21.8314   70.6837   -2.6041 P.3     1  UNL1        0.2208
     26 O          23.3444   70.8036   -3.1643 O.co2   1  UNL1       -0.4371
     27 O          21.4253   69.2931   -2.2100 O.2     1  UNL1       -0.5170
     28 O          21.7516   71.7674   -1.4106 O.3     1  UNL1       -0.2858
     29 O          23.3334   73.0719   -0.2221 O.3     1  UNL1       -0.3258
     30 O          21.0301   71.7758    2.9505 O.3     1  UNL1       -0.3794
     31 O          20.8593   74.5134    2.0995 O.3     1  UNL1       -0.3794
     32 O          21.5960   69.9828    0.7495 O.3     1  UNL1       -0.3775
     33 C          21.2753   72.2095    1.6099 C.3     1  UNL1        0.1715
     34 C          21.8760   73.6156    1.6631 C.3     1  UNL1        0.1694
     35 C          22.2433   71.2363    0.9397 C.3     1  UNL1        0.1967
     36 C          22.4115   74.0415    0.2895 C.3     1  UNL1        0.1761
     37 C          22.7535   71.7777   -0.3970 C.3     1  UNL1        0.2704
     38 H          20.4157   72.3892    3.3816 H       1  UNL1        0.2105
     39 H          20.5294   74.2329    2.9676 H       1  UNL1        0.2105
     40 H          21.2779   69.6505    1.6029 H       1  UNL1        0.2106
     41 O          24.1792   75.2705    1.3257 O.3     1  UNL1       -0.3794
     42 C          23.1552   75.3738    0.3536 C.3     1  UNL1        0.1693
     43 H          24.6613   76.1112    1.3772 H       1  UNL1        0.2105
@<TRIPOS>UNITY_ATOM_ATTR
2 1
charge -1
26 1
charge -1
@<TRIPOS>BOND
     1    25    28    1
     2    25    24    1
     3    25    26    1
     4    25    27    2
     5     1     4    1
     6     1    24    1
     7     1     2    1
     8     1     3    2
     9     6    11    1
    10     6    12    1
    11    29    36    1
    12    29    37    1
    13     7     9    1
    14     7    13    1
    15     8    10    1
    16     8    14    1
    17    28    37    1
    18     4     5    1
    19    30    33    1
    20    30    38    1
    21    31    34    1
    22    31    39    1
    23    32    35    1
    24    32    40    1
    25    41    42    1
    26    41    43    1
    27    15    19    2
    28    16    22    2
    29    17    12    1
    30    17    19   ar
    31    17    20   ar
    32    18    19   ar
    33    18    22   ar
    34    18    23    1
    35     9    10    1
    36     9    11    1
    37    10    12    1
    38    11     5    1
    39    33    34    1
    40    33    35    1
    41    34    36    1
    42    35    37    1
    43    36    42    1
    44    20    21   ar
    45    21    22   ar
