@<TRIPOS>MOLECULE
*****
 43 45 0 0 0
SMALL
GASTEIGER

@<TRIPOS>ATOM
      1 P          22.7295   71.3797   -2.3156 P.3     1  UNL1        0.2189
      2 O          22.2363   72.8237   -2.8544 O.co2   1  UNL1       -0.4371
      3 O          24.0434   70.9118   -2.8694 O.2     1  UNL1       -0.5170
      4 O          21.4649   70.4091   -2.5921 O.3     1  UNL1       -0.3112
      5 C          20.7940   70.5103   -3.8348 C.3     1  UNL1        0.1811
      6 O          18.9114   71.6461   -4.8062 O.3     1  UNL1       -0.3308
      7 O          17.2870   70.4668   -2.5786 O.3     1  UNL1       -0.3794
      8 O          16.6929   68.8326   -4.6792 O.3     1  UNL1       -0.3779
      9 C          18.3838   69.8996   -3.2955 C.3     1  UNL1        0.1713
     10 C          17.9447   69.4865   -4.6843 C.3     1  UNL1        0.1895
     11 C          19.3769   71.0145   -3.5939 C.3     1  UNL1        0.1764
     12 C          17.9051   70.8194   -5.4121 C.3     1  UNL1        0.2383
     13 H          16.6390   69.7733   -2.3767 H       1  UNL1        0.2105
     14 H          16.7705   67.9895   -4.2046 H       1  UNL1        0.2106
     15 O          15.9619   70.2929   -7.3928 O.2     1  UNL1       -0.2464
     16 O          19.1138   70.3339  -10.7554 O.2     1  UNL1       -0.2670
     17 N          18.1904   70.6876   -6.8129 N.ar    1  UNL1       -0.2551
     18 N          17.5337   70.3128   -9.0656 N.ar    1  UNL1       -0.2743
     19 C          17.1416   70.4226   -7.7250 C.ar    1  UNL1        0.3323
     20 C          19.4956   70.8221   -7.2706 C.ar    1  UNL1        0.0869
     21 C          19.8539   70.7149   -8.5515 C.ar    1  UNL1        0.0795
     22 C          18.8185   70.4380   -9.5688 C.ar    1  UNL1        0.2626
     23 H          16.8212   70.1265   -9.7190 H       1  UNL1        0.1734
     24 O          22.7026   71.5629   -0.7098 O.3     1  UNL1       -0.2703
     25 P          21.4679   71.6083    0.3328 P.3     1  UNL1        0.2208
     26 O          21.4016   70.0913    0.8938 O.co2   1  UNL1       -0.4371
     27 O          20.1807   72.1058   -0.2584 O.2     1  UNL1       -0.5170
     28 O          22.0140   72.4787    1.5764 O.3     1  UNL1       -0.2858
     29 O          23.7731   71.2797    2.6141 O.3     1  UNL1       -0.3226
     30 O          23.5429   74.6547    4.9856 O.3     1  UNL1       -0.3794
     31 O          21.1112   73.3203    4.0689 O.3     1  UNL1       -0.3775
     32 O          25.6996   74.3707    3.0572 O.3     1  UNL1       -0.3792
     33 C          23.4478   73.9034    3.7755 C.3     1  UNL1        0.1718
     34 C          22.4229   72.7822    3.9484 C.3     1  UNL1        0.1968
     35 C          24.8293   73.3194    3.4716 C.3     1  UNL1        0.1723
     36 C          22.4592   71.8197    2.7605 C.3     1  UNL1        0.2706
     37 C          24.7610   72.2761    2.3602 C.3     1  UNL1        0.1830
     38 H          22.6764   75.0355    5.1989 H       1  UNL1        0.2105
     39 H          21.0809   73.9321    4.8206 H       1  UNL1        0.2106
     40 H          25.7518   75.0416    3.7558 H       1  UNL1        0.2106
     41 O          25.9512   70.5377    1.3292 O.co2   1  UNL1       -0.5466
     42 O          27.0014   71.6621    3.0120 O.co2   1  UNL1       -0.5466
     43 C          26.0268   71.4850    2.2966 C.2     1  UNL1        0.0799
@<TRIPOS>UNITY_ATOM_ATTR
2 1
charge -1
26 1
charge -1
41 1
charge -1
@<TRIPOS>BOND
     1     1     4    1
     2     1    24    1
     3     1     2    1
     4     1     3    2
     5    25    28    1
     6    25    24    1
     7    25    26    1
     8    25    27    2
     9     6    11    1
    10     6    12    1
    11    29    36    1
    12    29    37    1
    13     7     9    1
    14     7    13    1
    15     8    10    1
    16     8    14    1
    17     4     5    1
    18    28    36    1
    19    30    33    1
    20    30    38    1
    21    31    34    1
    22    31    39    1
    23    32    35    1
    24    32    40    1
    25    41    43   ar
    26    15    19    2
    27    42    43   ar
    28    16    22    2
    29    17    12    1
    30    17    19   ar
    31    17    20   ar
    32    18    19   ar
    33    18    22   ar
    34    18    23    1
    35     9    10    1
    36     9    11    1
    37    10    12    1
    38    11     5    1
    39    33    34    1
    40    33    35    1
    41    34    36    1
    42    35    37    1
    43    37    43    1
    44    20    21   ar
    45    21    22   ar
@<TRIPOS>MOLECULE
*****
 43 45 0 0 0
SMALL
GASTEIGER

@<TRIPOS>ATOM
      1 P          20.5966   72.8972   -3.5655 P.3     1  UNL1        0.2189
      2 O          20.3021   74.4833   -3.4372 O.co2   1  UNL1       -0.4371
      3 O          21.4582   72.5049   -4.7298 O.2     1  UNL1       -0.5170
      4 O          19.1259   72.2241   -3.5215 O.3     1  UNL1       -0.3112
      5 C          18.0047   73.0281   -3.8393 C.3     1  UNL1        0.1811
      6 O          16.4131   71.9687   -5.2961 O.3     1  UNL1       -0.3308
      7 O          15.7232   70.2166   -2.9625 O.3     1  UNL1       -0.3794
      8 O          17.3420   68.6092   -4.4564 O.3     1  UNL1       -0.3779
      9 C          16.9908   70.7463   -3.3511 C.3     1  UNL1        0.1713
     10 C          17.5192   70.0064   -4.5617 C.3     1  UNL1        0.1895
     11 C          16.7648   72.1458   -3.9068 C.3     1  UNL1        0.1764
     12 C          16.7004   70.6165   -5.6865 C.3     1  UNL1        0.2383
     13 H          15.8421   69.3226   -2.6042 H       1  UNL1        0.2105
     14 H          17.8840   68.2687   -3.7268 H       1  UNL1        0.2106
     15 O          15.4635   70.5397   -8.2244 O.2     1  UNL1       -0.2464
     16 O          19.5201   70.6787  -10.4081 O.2     1  UNL1       -0.2670
     17 N          17.4094   70.6315   -6.9347 N.ar    1  UNL1       -0.2551
     18 N          17.4851   70.6080   -9.3095 N.ar    1  UNL1       -0.2743
     19 C          16.6929   70.5895   -8.1541 C.ar    1  UNL1        0.3323
     20 C          18.7978   70.6889   -6.9430 C.ar    1  UNL1        0.0869
     21 C          19.5392   70.7060   -8.0524 C.ar    1  UNL1        0.0795
     22 C          18.8682   70.6639   -9.3683 C.ar    1  UNL1        0.2626
     23 H          17.0088   70.5774  -10.1706 H       1  UNL1        0.1734
     24 O          21.2106   72.5238   -2.1176 O.3     1  UNL1       -0.2703
     25 P          20.4869   72.2186   -0.7045 P.3     1  UNL1        0.2208
     26 O          20.2785   70.6136   -0.7347 O.co2   1  UNL1       -0.4371
     27 O          19.2266   73.0017   -0.4763 O.2     1  UNL1       -0.5170
     28 O          21.6346   72.4593    0.4034 O.3     1  UNL1       -0.2858
     29 O          22.8647   71.0023    1.8081 O.3     1  UNL1       -0.3226
     30 O          22.2712   74.2553    4.2847 O.3     1  UNL1       -0.3794
     31 O          20.1092   73.2776    2.5805 O.3     1  UNL1       -0.3775
     32 O          24.8704   73.8070    3.0623 O.3     1  UNL1       -0.3792
     33 C          22.4715   73.5837    3.0410 C.3     1  UNL1        0.1718
     34 C          21.3338   72.5894    2.8073 C.3     1  UNL1        0.1968
     35 C          23.8131   72.8508    3.1100 C.3     1  UNL1        0.1723
     36 C          21.6303   71.6914    1.6055 C.3     1  UNL1        0.2706
     37 C          23.9790   71.8815    1.9431 C.3     1  UNL1        0.1830
     38 H          21.4243   74.7282    4.2643 H       1  UNL1        0.2105
     39 H          19.9150   73.8496    3.3391 H       1  UNL1        0.2106
     40 H          24.7763   74.4301    3.7997 H       1  UNL1        0.2106
     41 O          24.7372   69.6621    1.9700 O.co2   1  UNL1       -0.5466
     42 O          26.2392   71.2813    2.5369 O.co2   1  UNL1       -0.5466
     43 C          25.1172   70.9453    2.1889 C.2     1  UNL1        0.0799
@<TRIPOS>UNITY_ATOM_ATTR
2 1
charge -1
26 1
charge -1
41 1
charge -1
@<TRIPOS>BOND
     1     1     4    1
     2     1    24    1
     3     1     2    1
     4     1     3    2
     5    25    28    1
     6    25    24    1
     7    25    26    1
     8    25    27    2
     9     6    11    1
    10     6    12    1
    11    29    36    1
    12    29    37    1
    13     7     9    1
    14     7    13    1
    15     8    10    1
    16     8    14    1
    17     4     5    1
    18    28    36    1
    19    30    33    1
    20    30    38    1
    21    31    34    1
    22    31    39    1
    23    32    35    1
    24    32    40    1
    25    41    43   ar
    26    15    19    2
    27    42    43   ar
    28    16    22    2
    29    17    12    1
    30    17    19   ar
    31    17    20   ar
    32    18    19   ar
    33    18    22   ar
    34    18    23    1
    35     9    10    1
    36     9    11    1
    37    10    12    1
    38    11     5    1
    39    33    34    1
    40    33    35    1
    41    34    36    1
    42    35    37    1
    43    37    43    1
    44    20    21   ar
    45    21    22   ar
@<TRIPOS>MOLECULE
*****
 43 45 0 0 0
SMALL
GASTEIGER

@<TRIPOS>ATOM
      1 P          21.4899   72.3544   -4.7380 P.3     1  UNL1        0.2189
      2 O          20.8221   73.8284   -4.7168 O.co2   1  UNL1       -0.4371
      3 O          22.5931   72.1731   -5.7389 O.2     1  UNL1       -0.5170
      4 O          20.2256   71.3574   -4.8976 O.3     1  UNL1       -0.3112
      5 C          19.5800   70.8915   -3.7268 C.3     1  UNL1        0.1811
      6 O          17.8361   71.8098   -5.1028 O.3     1  UNL1       -0.3308
      7 O          15.9108   70.5336   -3.1907 O.3     1  UNL1       -0.3794
      8 O          15.9055   68.7946   -5.2912 O.3     1  UNL1       -0.3779
      9 C          17.1771   70.0594   -3.6493 C.3     1  UNL1        0.1713
     10 C          17.0671   69.5689   -5.0775 C.3     1  UNL1        0.1895
     11 C          18.1033   71.2590   -3.7949 C.3     1  UNL1        0.1764
     12 C          17.0531   70.8720   -5.8583 C.3     1  UNL1        0.2383
     13 H          15.3019   69.7848   -3.0901 H       1  UNL1        0.2105
     14 H          15.9628   67.9760   -4.7729 H       1  UNL1        0.2106
     15 O          15.5539   70.5342   -8.2279 O.2     1  UNL1       -0.2464
     16 O          19.3574   70.3479  -10.8245 O.2     1  UNL1       -0.2670
     17 N          17.6261   70.7327   -7.1672 N.ar    1  UNL1       -0.2551
     18 N          17.4497   70.4407   -9.5187 N.ar    1  UNL1       -0.2743
     19 C          16.7842   70.5677   -8.2924 C.ar    1  UNL1        0.3323
     20 C          19.0062   70.7618   -7.3268 C.ar    1  UNL1        0.0869
     21 C          19.6260   70.6396   -8.5022 C.ar    1  UNL1        0.0795
     22 C          18.8192   70.4628   -9.7275 C.ar    1  UNL1        0.2626
     23 H          16.8847   70.3227  -10.3163 H       1  UNL1        0.1734
     24 O          21.9339   72.1349   -3.1994 O.3     1  UNL1       -0.2703
     25 P          23.3967   72.0950   -2.5121 P.3     1  UNL1        0.2208
     26 O          24.0343   73.5270   -2.9161 O.co2   1  UNL1       -0.4371
     27 O          24.2315   70.9121   -2.9092 O.2     1  UNL1       -0.5170
     28 O          23.1084   72.2098   -0.9290 O.3     1  UNL1       -0.2858
     29 O          24.3673   71.0443    0.7037 O.3     1  UNL1       -0.3226
     30 O          20.8570   71.8151    2.7412 O.3     1  UNL1       -0.3794
     31 O          20.7907   70.9494   -0.0482 O.3     1  UNL1       -0.3775
     32 O          23.2472   73.3678    3.3131 O.3     1  UNL1       -0.3792
     33 C          21.8987   72.0672    1.7982 C.3     1  UNL1        0.1718
     34 C          21.9501   70.9310    0.7765 C.3     1  UNL1        0.1968
     35 C          23.2201   72.1536    2.5651 C.3     1  UNL1        0.1723
     36 C          23.1923   71.0463   -0.1080 C.3     1  UNL1        0.2706
     37 C          24.4162   72.1377    1.6176 C.3     1  UNL1        0.1830
     38 H          20.0073   71.7561    2.2766 H       1  UNL1        0.2105
     39 H          19.9986   70.8768    0.5066 H       1  UNL1        0.2106
     40 H          22.4909   73.3906    3.9201 H       1  UNL1        0.2106
     41 O          25.9859   70.5690    2.3771 O.co2   1  UNL1       -0.5466
     42 O          26.3633   72.7557    2.9014 O.co2   1  UNL1       -0.5466
     43 C          25.6843   71.8911    2.3682 C.2     1  UNL1        0.0799
@<TRIPOS>UNITY_ATOM_ATTR
2 1
charge -1
26 1
charge -1
41 1
charge -1
@<TRIPOS>BOND
     1     1     4    1
     2     1    24    1
     3     1     2    1
     4     1     3    2
     5    25    28    1
     6    25    24    1
     7    25    26    1
     8    25    27    2
     9     6    11    1
    10     6    12    1
    11    29    36    1
    12    29    37    1
    13     7     9    1
    14     7    13    1
    15     8    10    1
    16     8    14    1
    17     4     5    1
    18    28    36    1
    19    30    33    1
    20    30    38    1
    21    31    34    1
    22    31    39    1
    23    32    35    1
    24    32    40    1
    25    41    43   ar
    26    15    19    2
    27    42    43   ar
    28    16    22    2
    29    17    12    1
    30    17    19   ar
    31    17    20   ar
    32    18    19   ar
    33    18    22   ar
    34    18    23    1
    35     9    10    1
    36     9    11    1
    37    10    12    1
    38    11     5    1
    39    33    34    1
    40    33    35    1
    41    34    36    1
    42    35    37    1
    43    37    43    1
    44    20    21   ar
    45    21    22   ar
@<TRIPOS>MOLECULE
*****
 43 45 0 0 0
SMALL
GASTEIGER

@<TRIPOS>ATOM
      1 P          23.4803   73.5974   -4.1376 P.3     1  UNL1        0.2189
      2 O          22.8187   75.0705   -4.2438 O.co2   1  UNL1       -0.4371
      3 O          24.9754   73.5820   -4.0104 O.2     1  UNL1       -0.5170
      4 O          22.8754   72.8070   -5.4133 O.3     1  UNL1       -0.3112
      5 C          21.5757   72.2546   -5.3124 C.3     1  UNL1        0.1811
      6 O          20.4668   70.3373   -6.2461 O.3     1  UNL1       -0.3308
      7 O          20.6358   71.7558   -8.8825 O.3     1  UNL1       -0.3794
      8 O          18.0534   72.2034   -8.1296 O.3     1  UNL1       -0.3779
      9 C          20.4198   72.2953   -7.5784 C.3     1  UNL1        0.1713
     10 C          19.0110   71.9935   -7.1130 C.3     1  UNL1        0.1895
     11 C          21.2594   71.4934   -6.5933 C.3     1  UNL1        0.1764
     12 C          19.1197   70.5343   -6.7043 C.3     1  UNL1        0.2383
     13 H          20.1096   72.2522   -9.5293 H       1  UNL1        0.2105
     14 H          18.0219   73.1471   -8.3542 H       1  UNL1        0.2106
     15 O          16.4460   69.7148   -7.0993 O.2     1  UNL1       -0.2464
     16 O          15.7278   69.2482   -2.5705 O.2     1  UNL1       -0.2670
     17 N          18.2118   70.1926   -5.6461 N.ar    1  UNL1       -0.2551
     18 N          16.0906   69.4841   -4.8433 N.ar    1  UNL1       -0.2743
     19 C          16.8893   69.7933   -5.9521 C.ar    1  UNL1        0.3323
     20 C          18.6340   70.2530   -4.3235 C.ar    1  UNL1        0.0869
     21 C          17.8611   69.9552   -3.2773 C.ar    1  UNL1        0.0795
     22 C          16.4653   69.5298   -3.5102 C.ar    1  UNL1        0.2626
     23 H          15.1652   69.2055   -5.0312 H       1  UNL1        0.1734
     24 O          22.6917   72.9344   -2.8920 O.3     1  UNL1       -0.2703
     25 P          22.8663   71.4996   -2.1677 P.3     1  UNL1        0.2208
     26 O          24.2164   70.9090   -2.8376 O.co2   1  UNL1       -0.4371
     27 O          21.6710   70.5993   -2.2886 O.2     1  UNL1       -0.5170
     28 O          23.2860   71.8551   -0.6512 O.3     1  UNL1       -0.2858
     29 O          24.6135   70.9046    1.0645 O.3     1  UNL1       -0.3226
     30 O          21.2068   71.9838    3.1377 O.3     1  UNL1       -0.3794
     31 O          21.0051   70.7521    0.4963 O.3     1  UNL1       -0.3775
     32 O          23.6299   73.5707    3.3854 O.3     1  UNL1       -0.3792
     33 C          22.2046   72.0946    2.1227 C.3     1  UNL1        0.1718
     34 C          22.2017   70.8308    1.2622 C.3     1  UNL1        0.1968
     35 C          23.5610   72.2675    2.8099 C.3     1  UNL1        0.1723
     36 C          23.4018   70.8116    0.3144 C.3     1  UNL1        0.2706
     37 C          24.7113   72.1102    1.8196 C.3     1  UNL1        0.1830
     38 H          20.3360   71.8730    2.7245 H       1  UNL1        0.2105
     39 H          20.2395   70.7642    1.0914 H       1  UNL1        0.2106
     40 H          22.9030   73.6838    4.0177 H       1  UNL1        0.2106
     41 O          26.4967   70.6953    2.3780 O.co2   1  UNL1       -0.5466
     42 O          26.5695   72.8283    3.1808 O.co2   1  UNL1       -0.5466
     43 C          26.0117   71.9516    2.5379 C.2     1  UNL1        0.0799
@<TRIPOS>UNITY_ATOM_ATTR
2 1
charge -1
26 1
charge -1
41 1
charge -1
@<TRIPOS>BOND
     1     1     4    1
     2     1    24    1
     3     1     2    1
     4     1     3    2
     5    25    28    1
     6    25    24    1
     7    25    26    1
     8    25    27    2
     9     6    11    1
    10     6    12    1
    11    29    36    1
    12    29    37    1
    13     7     9    1
    14     7    13    1
    15     8    10    1
    16     8    14    1
    17     4     5    1
    18    28    36    1
    19    30    33    1
    20    30    38    1
    21    31    34    1
    22    31    39    1
    23    32    35    1
    24    32    40    1
    25    41    43   ar
    26    15    19    2
    27    42    43   ar
    28    16    22    2
    29    17    12    1
    30    17    19   ar
    31    17    20   ar
    32    18    19   ar
    33    18    22   ar
    34    18    23    1
    35     9    10    1
    36     9    11    1
    37    10    12    1
    38    11     5    1
    39    33    34    1
    40    33    35    1
    41    34    36    1
    42    35    37    1
    43    37    43    1
    44    20    21   ar
    45    21    22   ar
@<TRIPOS>MOLECULE
*****
 43 45 0 0 0
SMALL
GASTEIGER

@<TRIPOS>ATOM
      1 P          20.9677   72.8177   -2.8247 P.3     1  UNL1        0.2189
      2 O          19.9142   73.6277   -1.9012 O.co2   1  UNL1       -0.4371
      3 O          21.0297   73.2644   -4.2560 O.2     1  UNL1       -0.5170
      4 O          20.5771   71.2653   -2.5895 O.3     1  UNL1       -0.3112
      5 C          19.8757   70.5821   -3.6122 C.3     1  UNL1        0.1811
      6 O          18.1204   71.6573   -4.8534 O.3     1  UNL1       -0.3308
      7 O          16.2202   70.3639   -2.9278 O.3     1  UNL1       -0.3794
      8 O          16.0389   68.7503   -5.1186 O.3     1  UNL1       -0.3779
      9 C          17.4407   69.8588   -3.4699 C.3     1  UNL1        0.1713
     10 C          17.2450   69.4566   -4.9163 C.3     1  UNL1        0.1895
     11 C          18.4171   71.0207   -3.5916 C.3     1  UNL1        0.1764
     12 C          17.2605   70.8016   -5.6225 C.3     1  UNL1        0.2383
     13 H          15.5805   69.6394   -2.8407 H       1  UNL1        0.2105
     14 H          16.0787   67.9015   -4.6495 H       1  UNL1        0.2106
     15 O          15.6702   70.2930   -7.9004 O.2     1  UNL1       -0.2464
     16 O          19.3170   70.4767  -10.7129 O.2     1  UNL1       -0.2670
     17 N          17.7685   70.7113   -6.9621 N.ar    1  UNL1       -0.2551
     18 N          17.4882   70.3839   -9.2989 N.ar    1  UNL1       -0.2743
     19 C          16.8847   70.4519   -8.0362 C.ar    1  UNL1        0.3323
     20 C          19.1268   70.8805   -7.2016 C.ar    1  UNL1        0.0869
     21 C          19.6873   70.8130   -8.4108 C.ar    1  UNL1        0.0795
     22 C          18.8339   70.5446   -9.5868 C.ar    1  UNL1        0.2626
     23 H          16.8933   70.2023  -10.0621 H       1  UNL1        0.1734
     24 O          22.3559   72.9704   -2.0109 O.3     1  UNL1       -0.2703
     25 P          23.4185   74.1870   -1.9436 P.3     1  UNL1        0.2208
     26 O          22.4894   75.4719   -1.6179 O.co2   1  UNL1       -0.4371
     27 O          24.2663   74.3329   -3.1740 O.2     1  UNL1       -0.5170
     28 O          24.2492   73.9302   -0.5848 O.3     1  UNL1       -0.2858
     29 O          22.5913   73.2304    0.9550 O.3     1  UNL1       -0.3226
     30 O          26.0548   72.6691    3.1361 O.3     1  UNL1       -0.3794
     31 O          25.7097   75.0610    1.4947 O.3     1  UNL1       -0.3775
     32 O          24.6664   70.3868    1.9895 O.3     1  UNL1       -0.3792
     33 C          25.2517   72.7238    1.9571 C.3     1  UNL1        0.1718
     34 C          24.6757   74.1308    1.7951 C.3     1  UNL1        0.1968
     35 C          24.1234   71.7007    2.1056 C.3     1  UNL1        0.1723
     36 C          23.6314   74.1692    0.6785 C.3     1  UNL1        0.2706
     37 C          23.0586   71.8853    1.0283 C.3     1  UNL1        0.1830
     38 H          26.7787   73.3111    3.0645 H       1  UNL1        0.2105
     39 H          26.3760   75.0417    2.1990 H       1  UNL1        0.2106
     40 H          25.3457   70.2564    2.6695 H       1  UNL1        0.2106
     41 O          20.9460   71.8996    2.0474 O.co2   1  UNL1       -0.5466
     42 O          21.6187   69.9498    1.0752 O.co2   1  UNL1       -0.5466
     43 C          21.8220   71.1186    1.3678 C.2     1  UNL1        0.0799
@<TRIPOS>UNITY_ATOM_ATTR
2 1
charge -1
26 1
charge -1
41 1
charge -1
@<TRIPOS>BOND
     1     1     4    1
     2     1    24    1
     3     1     2    1
     4     1     3    2
     5    25    28    1
     6    25    24    1
     7    25    26    1
     8    25    27    2
     9     6    11    1
    10     6    12    1
    11    29    36    1
    12    29    37    1
    13     7     9    1
    14     7    13    1
    15     8    10    1
    16     8    14    1
    17     4     5    1
    18    28    36    1
    19    30    33    1
    20    30    38    1
    21    31    34    1
    22    31    39    1
    23    32    35    1
    24    32    40    1
    25    41    43   ar
    26    15    19    2
    27    42    43   ar
    28    16    22    2
    29    17    12    1
    30    17    19   ar
    31    17    20   ar
    32    18    19   ar
    33    18    22   ar
    34    18    23    1
    35     9    10    1
    36     9    11    1
    37    10    12    1
    38    11     5    1
    39    33    34    1
    40    33    35    1
    41    34    36    1
    42    35    37    1
    43    37    43    1
    44    20    21   ar
    45    21    22   ar
@<TRIPOS>MOLECULE
*****
 43 45 0 0 0
SMALL
GASTEIGER

@<TRIPOS>ATOM
      1 P          22.4426   71.5102   -2.3163 P.3     1  UNL1        0.2189
      2 O          21.8601   73.0201   -2.3154 O.co2   1  UNL1       -0.4371
      3 O          23.5796   71.2704   -3.2658 O.2     1  UNL1       -0.5170
      4 O          21.1322   70.5884   -2.5421 O.3     1  UNL1       -0.3112
      5 C          20.5085   70.5996   -3.8131 C.3     1  UNL1        0.1811
      6 O          18.6354   71.6512   -4.8917 O.3     1  UNL1       -0.3308
      7 O          16.9444   70.4183   -2.7441 O.3     1  UNL1       -0.3794
      8 O          16.5304   68.7491   -4.8603 O.3     1  UNL1       -0.3779
      9 C          18.1001   69.8929   -3.3975 C.3     1  UNL1        0.1713
     10 C          17.7528   69.4542   -4.8043 C.3     1  UNL1        0.1895
     11 C          19.0611   71.0462   -3.6515 C.3     1  UNL1        0.1764
     12 C          17.6975   70.7802   -5.5436 C.3     1  UNL1        0.2383
     13 H          16.3156   69.6997   -2.5713 H       1  UNL1        0.2105
     14 H          16.6171   67.9127   -4.3757 H       1  UNL1        0.2106
     15 O          15.8786   70.2035   -7.6258 O.2     1  UNL1       -0.2464
     16 O          19.2081   70.3129  -10.8111 O.2     1  UNL1       -0.2670
     17 N          18.0621   70.6524   -6.9262 N.ar    1  UNL1       -0.2551
     18 N          17.5388   70.2575   -9.2101 N.ar    1  UNL1       -0.2743
     19 C          17.0714   70.3606   -7.8934 C.ar    1  UNL1        0.3323
     20 C          19.3868   70.8171   -7.3122 C.ar    1  UNL1        0.0869
     21 C          19.8172   70.7159   -8.5713 C.ar    1  UNL1        0.0795
     22 C          18.8459   70.4123   -9.6427 C.ar    1  UNL1        0.2626
     23 H          16.8678   70.0529   -9.9009 H       1  UNL1        0.1734
     24 O          22.8003   71.2583   -0.7602 O.3     1  UNL1       -0.2703
     25 P          22.0095   71.6648    0.5900 P.3     1  UNL1        0.2208
     26 O          22.1843   70.3577    1.5287 O.co2   1  UNL1       -0.4371
     27 O          20.5841   72.0802    0.3674 O.2     1  UNL1       -0.5170
     28 O          22.9344   72.7904    1.2829 O.3     1  UNL1       -0.2858
     29 O          21.7656   74.0037    2.9476 O.3     1  UNL1       -0.3226
     30 O          25.3418   76.0638    2.7608 O.3     1  UNL1       -0.3794
     31 O          24.0245   75.1592    0.3153 O.3     1  UNL1       -0.3775
     32 O          24.8090   74.2636    4.9804 O.3     1  UNL1       -0.3792
     33 C          24.4914   74.9197    2.6840 C.3     1  UNL1        0.1718
     34 C          23.4290   75.1432    1.6075 C.3     1  UNL1        0.1968
     35 C          23.8315   74.7283    4.0514 C.3     1  UNL1        0.1723
     36 C          22.3654   74.0452    1.6522 C.3     1  UNL1        0.2706
     37 C          22.6981   73.7087    3.9851 C.3     1  UNL1        0.1830
     38 H          25.7722   76.2052    1.9029 H       1  UNL1        0.2105
     39 H          24.7006   75.8535    0.2799 H       1  UNL1        0.2106
     40 H          25.5361   74.9035    5.0319 H       1  UNL1        0.2106
     41 O          22.5350   73.2746    6.2844 O.co2   1  UNL1       -0.5466
     42 O          20.7170   74.2047    5.2699 O.co2   1  UNL1       -0.5466
     43 C          21.8575   73.7691    5.2188 C.2     1  UNL1        0.0799
@<TRIPOS>UNITY_ATOM_ATTR
2 1
charge -1
26 1
charge -1
41 1
charge -1
@<TRIPOS>BOND
     1     1     4    1
     2     1    24    1
     3     1     2    1
     4     1     3    2
     5    25    28    1
     6    25    24    1
     7    25    26    1
     8    25    27    2
     9     6    11    1
    10     6    12    1
    11    29    36    1
    12    29    37    1
    13     7     9    1
    14     7    13    1
    15     8    10    1
    16     8    14    1
    17     4     5    1
    18    28    36    1
    19    30    33    1
    20    30    38    1
    21    31    34    1
    22    31    39    1
    23    32    35    1
    24    32    40    1
    25    41    43   ar
    26    15    19    2
    27    42    43   ar
    28    16    22    2
    29    17    12    1
    30    17    19   ar
    31    17    20   ar
    32    18    19   ar
    33    18    22   ar
    34    18    23    1
    35     9    10    1
    36     9    11    1
    37    10    12    1
    38    11     5    1
    39    33    34    1
    40    33    35    1
    41    34    36    1
    42    35    37    1
    43    37    43    1
    44    20    21   ar
    45    21    22   ar
@<TRIPOS>MOLECULE
*****
 43 45 0 0 0
SMALL
GASTEIGER

@<TRIPOS>ATOM
      1 P          20.5822   73.6527   -4.5864 P.3     1  UNL1        0.2189
      2 O          19.6037   73.2798   -3.3526 O.co2   1  UNL1       -0.4371
      3 O          20.2087   74.8970   -5.3375 O.2     1  UNL1       -0.5170
      4 O          20.6384   72.2934   -5.4623 O.3     1  UNL1       -0.3112
      5 C          20.4674   72.3853   -6.8647 C.3     1  UNL1        0.1811
      6 O          19.3998   70.2873   -6.3787 O.3     1  UNL1       -0.3308
      7 O          19.3103   69.8580   -9.3451 O.3     1  UNL1       -0.3794
      8 O          16.7662   70.6621   -8.7824 O.3     1  UNL1       -0.3779
      9 C          19.1568   71.0675   -8.6020 C.3     1  UNL1        0.1713
     10 C          17.8017   71.0999   -7.9276 C.3     1  UNL1        0.1895
     11 C          20.1040   71.0107   -7.4113 C.3     1  UNL1        0.1764
     12 C          18.0157   70.1709   -6.7449 C.3     1  UNL1        0.2383
     13 H          18.7149   69.8711  -10.1113 H       1  UNL1        0.2105
     14 H          16.6691   71.2867   -9.5189 H       1  UNL1        0.2106
     15 O          16.6653   68.3092   -5.1057 O.2     1  UNL1       -0.2464
     16 O          14.9248   71.6425   -2.4405 O.2     1  UNL1       -0.2670
     17 N          17.2027   70.5249   -5.6159 N.ar    1  UNL1       -0.2551
     18 N          15.7989   69.9712   -3.7804 N.ar    1  UNL1       -0.2743
     19 C          16.5675   69.5126   -4.8583 C.ar    1  UNL1        0.3323
     20 C          17.0425   71.8607   -5.2682 C.ar    1  UNL1        0.0869
     21 C          16.3067   72.2824   -4.2379 C.ar    1  UNL1        0.0795
     22 C          15.6091   71.2886   -3.3958 C.ar    1  UNL1        0.2626
     23 H          15.3453   69.2849   -3.2394 H       1  UNL1        0.1734
     24 O          22.0411   73.6979   -3.8917 O.3     1  UNL1       -0.2703
     25 P          22.9710   72.5162   -3.2980 P.3     1  UNL1        0.2208
     26 O          24.2123   72.4657   -4.3357 O.co2   1  UNL1       -0.4371
     27 O          22.2613   71.2054   -3.1184 O.2     1  UNL1       -0.5170
     28 O          23.5972   73.1295   -1.9436 O.3     1  UNL1       -0.2858
     29 O          21.9398   73.0519   -0.2536 O.3     1  UNL1       -0.3226
     30 O          25.1005   74.8038    1.7485 O.3     1  UNL1       -0.3794
     31 O          24.4607   75.5954   -0.9898 O.3     1  UNL1       -0.3775
     32 O          24.4342   72.0153    2.2294 O.3     1  UNL1       -0.3792
     33 C          24.4787   73.9473    0.7905 C.3     1  UNL1        0.1718
     34 C          23.6302   74.7828   -0.1684 C.3     1  UNL1        0.1968
     35 C          23.5995   72.9499    1.5481 C.3     1  UNL1        0.1723
     36 C          22.7708   73.8866   -1.0611 C.3     1  UNL1        0.2706
     37 C          22.6820   72.1836    0.5997 C.3     1  UNL1        0.1830
     38 H          25.6645   75.4464    1.2900 H       1  UNL1        0.2105
     39 H          25.0090   76.1665   -0.4298 H       1  UNL1        0.2106
     40 H          25.0233   72.4903    2.8362 H       1  UNL1        0.2106
     41 O          21.6221   70.1429    1.0624 O.co2   1  UNL1       -0.5466
     42 O          20.8376   71.9910    2.1433 O.co2   1  UNL1       -0.5466
     43 C          21.6139   71.4661    1.3592 C.2     1  UNL1        0.0799
@<TRIPOS>UNITY_ATOM_ATTR
2 1
charge -1
26 1
charge -1
41 1
charge -1
@<TRIPOS>BOND
     1     1     4    1
     2     1    24    1
     3     1     2    1
     4     1     3    2
     5    25    28    1
     6    25    24    1
     7    25    26    1
     8    25    27    2
     9     6    11    1
    10     6    12    1
    11    29    36    1
    12    29    37    1
    13     7     9    1
    14     7    13    1
    15     8    10    1
    16     8    14    1
    17     4     5    1
    18    28    36    1
    19    30    33    1
    20    30    38    1
    21    31    34    1
    22    31    39    1
    23    32    35    1
    24    32    40    1
    25    41    43   ar
    26    15    19    2
    27    42    43   ar
    28    16    22    2
    29    17    12    1
    30    17    19   ar
    31    17    20   ar
    32    18    19   ar
    33    18    22   ar
    34    18    23    1
    35     9    10    1
    36     9    11    1
    37    10    12    1
    38    11     5    1
    39    33    34    1
    40    33    35    1
    41    34    36    1
    42    35    37    1
    43    37    43    1
    44    20    21   ar
    45    21    22   ar
@<TRIPOS>MOLECULE
*****
 43 45 0 0 0
SMALL
GASTEIGER

@<TRIPOS>ATOM
      1 P          23.1795   73.1191   -4.0528 P.3     1  UNL1        0.2189
      2 O          24.0648   71.7787   -3.8569 O.co2   1  UNL1       -0.4371
      3 O          23.9270   74.2968   -4.6062 O.2     1  UNL1       -0.5170
      4 O          22.4874   73.3423   -2.6074 O.3     1  UNL1       -0.3112
      5 C          21.5038   74.3523   -2.4775 C.3     1  UNL1        0.1811
      6 O          20.7946   72.5966   -0.9969 O.3     1  UNL1       -0.3308
      7 O          18.6280   74.4715   -0.1124 O.3     1  UNL1       -0.3794
      8 O          20.4584   74.6853    1.8977 O.3     1  UNL1       -0.3779
      9 C          19.9761   74.7595   -0.4844 C.3     1  UNL1        0.1713
     10 C          20.9260   74.3296    0.6134 C.3     1  UNL1        0.1895
     11 C          20.3596   73.8234   -1.6223 C.3     1  UNL1        0.1764
     12 C          20.9848   72.8254    0.4083 C.3     1  UNL1        0.2383
     13 H          18.3604   75.0574    0.6134 H       1  UNL1        0.2105
     14 H          20.4395   75.6523    1.9785 H       1  UNL1        0.2106
     15 O          21.4118   70.0913    0.9728 O.2     1  UNL1       -0.2464
     16 O          25.8663   70.7955    1.9242 O.2     1  UNL1       -0.2670
     17 N          22.2463   72.2671    0.8057 N.ar    1  UNL1       -0.2551
     18 N          23.6298   70.4448    1.4471 N.ar    1  UNL1       -0.2743
     19 C          22.3538   70.8805    1.0660 C.ar    1  UNL1        0.3323
     20 C          23.3595   73.0891    0.9324 C.ar    1  UNL1        0.0869
     21 C          24.5692   72.6593    1.2964 C.ar    1  UNL1        0.0795
     22 C          24.7667   71.2241    1.5874 C.ar    1  UNL1        0.2626
     23 H          23.7289   69.4836    1.6356 H       1  UNL1        0.1734
     24 O          21.9495   72.6108   -4.9701 O.3     1  UNL1       -0.2703
     25 P          21.1589   73.3336   -6.1810 P.3     1  UNL1        0.2208
     26 O          22.0984   73.0368   -7.4653 O.co2   1  UNL1       -0.4371
     27 O          20.8723   74.7886   -5.9474 O.2     1  UNL1       -0.5170
     28 O          19.8486   72.4224   -6.4158 O.3     1  UNL1       -0.2858
     29 O          19.3139   70.2373   -5.6750 O.3     1  UNL1       -0.3226
     30 O          17.4885   70.3391   -9.3798 O.3     1  UNL1       -0.3794
     31 O          20.1560   71.4719   -9.0116 O.3     1  UNL1       -0.3775
     32 O          15.8938   70.5732   -6.9605 O.3     1  UNL1       -0.3792
     33 C          17.9679   70.8783   -8.1480 C.3     1  UNL1        0.1718
     34 C          19.4793   70.6690   -8.0514 C.3     1  UNL1        0.1968
     35 C          17.2558   70.1518   -7.0047 C.3     1  UNL1        0.1723
     36 C          19.9926   71.0236   -6.6551 C.3     1  UNL1        0.2706
     37 C          17.9056   70.4596   -5.6587 C.3     1  UNL1        0.1830
     38 H          17.9272   70.7857  -10.1210 H       1  UNL1        0.2105
     39 H          19.8350   71.2524   -9.8999 H       1  UNL1        0.2106
     40 H          15.4687   70.3831   -7.8113 H       1  UNL1        0.2106
     41 O          16.6569   68.5381   -5.1585 O.co2   1  UNL1       -0.5466
     42 O          17.6931   69.5872   -3.4193 O.co2   1  UNL1       -0.5466
     43 C          17.4280   69.5091   -4.6095 C.2     1  UNL1        0.0799
@<TRIPOS>UNITY_ATOM_ATTR
2 1
charge -1
26 1
charge -1
41 1
charge -1
@<TRIPOS>BOND
     1     1     4    1
     2     1    24    1
     3     1     2    1
     4     1     3    2
     5    25    28    1
     6    25    24    1
     7    25    26    1
     8    25    27    2
     9     6    11    1
    10     6    12    1
    11    29    36    1
    12    29    37    1
    13     7     9    1
    14     7    13    1
    15     8    10    1
    16     8    14    1
    17     4     5    1
    18    28    36    1
    19    30    33    1
    20    30    38    1
    21    31    34    1
    22    31    39    1
    23    32    35    1
    24    32    40    1
    25    41    43   ar
    26    15    19    2
    27    42    43   ar
    28    16    22    2
    29    17    12    1
    30    17    19   ar
    31    17    20   ar
    32    18    19   ar
    33    18    22   ar
    34    18    23    1
    35     9    10    1
    36     9    11    1
    37    10    12    1
    38    11     5    1
    39    33    34    1
    40    33    35    1
    41    34    36    1
    42    35    37    1
    43    37    43    1
    44    20    21   ar
    45    21    22   ar
@<TRIPOS>MOLECULE
*****
 43 45 0 0 0
SMALL
GASTEIGER

@<TRIPOS>ATOM
      1 P          15.5027   71.8140   -1.7615 P.3     1  UNL1        0.2189
      2 O          16.4465   72.8856   -1.0001 O.co2   1  UNL1       -0.4371
      3 O          15.0141   72.2476   -3.1126 O.2     1  UNL1       -0.5170
      4 O          14.3533   71.4685   -0.6764 O.3     1  UNL1       -0.3112
      5 C          14.2054   70.1258   -0.2525 C.3     1  UNL1        0.1811
      6 O          12.8277   68.1670   -0.4588 O.3     1  UNL1       -0.3308
      7 O          10.7281   69.9895   -1.5820 O.3     1  UNL1       -0.3794
      8 O           9.8972   69.6379    0.9913 O.3     1  UNL1       -0.3779
      9 C          11.6810   70.2377   -0.5482 C.3     1  UNL1        0.1713
     10 C          11.2779   69.5165    0.7204 C.3     1  UNL1        0.1895
     11 C          12.9748   69.5270   -0.9214 C.3     1  UNL1        0.1764
     12 C          11.6904   68.0866    0.4150 C.3     1  UNL1        0.2383
     13 H           9.8929   70.4338   -1.3658 H       1  UNL1        0.2105
     14 H           9.6850   70.5660    1.1797 H       1  UNL1        0.2106
     15 O          14.3519   67.6542    1.2553 O.2     1  UNL1       -0.2464
     16 O          12.9884   65.2787    4.9623 O.2     1  UNL1       -0.2670
     17 N          12.0595   67.3586    1.5959 N.ar    1  UNL1       -0.2551
     18 N          13.6703   66.4706    3.1003 N.ar    1  UNL1       -0.2743
     19 C          13.4255   67.1985    1.9284 C.ar    1  UNL1        0.3323
     20 C          11.0746   66.8140    2.4111 C.ar    1  UNL1        0.0869
     21 C          11.3235   66.1228    3.5251 C.ar    1  UNL1        0.0795
     22 C          12.7246   65.9093    3.9430 C.ar    1  UNL1        0.2626
     23 H          14.6139   66.3442    3.3512 H       1  UNL1        0.1734
     24 O          16.4081   70.4750   -1.7707 O.3     1  UNL1       -0.2703
     25 P          16.9768   69.5867   -2.9959 P.3     1  UNL1        0.2208
     26 O          15.6355   69.1490   -3.7893 O.co2   1  UNL1       -0.4371
     27 O          17.8471   68.4390   -2.5723 O.2     1  UNL1       -0.5170
     28 O          17.6985   70.6495   -3.9716 O.3     1  UNL1       -0.2858
     29 O          18.2342   70.0750   -6.2059 O.3     1  UNL1       -0.3226
     30 O          20.6812   73.3420   -5.5681 O.3     1  UNL1       -0.3794
     31 O          20.3593   71.3063   -3.4977 O.3     1  UNL1       -0.3775
     32 O          18.2713   73.6147   -7.1709 O.3     1  UNL1       -0.3792
     33 C          19.5121   72.5385   -5.4082 C.3     1  UNL1        0.1718
     34 C          19.9026   71.1744   -4.8389 C.3     1  UNL1        0.1968
     35 C          18.8593   72.3746   -6.7825 C.3     1  UNL1        0.1723
     36 C          18.7166   70.2093   -4.8685 C.3     1  UNL1        0.2706
     37 C          17.7710   71.3052   -6.7583 C.3     1  UNL1        0.1830
     38 H          21.1131   73.4598   -4.7073 H       1  UNL1        0.2105
     39 H          21.1117   71.9175   -3.4714 H       1  UNL1        0.2106
     40 H          18.9535   74.3041   -7.1900 H       1  UNL1        0.2106
     41 O          16.1167   70.4128   -8.1613 O.co2   1  UNL1       -0.5466
     42 O          18.0774   71.0466   -9.1376 O.co2   1  UNL1       -0.5466
     43 C          17.3738   70.9211   -8.1465 C.2     1  UNL1        0.0799
@<TRIPOS>UNITY_ATOM_ATTR
2 1
charge -1
26 1
charge -1
41 1
charge -1
@<TRIPOS>BOND
     1     1     4    1
     2     1    24    1
     3     1     2    1
     4     1     3    2
     5    25    28    1
     6    25    24    1
     7    25    26    1
     8    25    27    2
     9     6    11    1
    10     6    12    1
    11    29    36    1
    12    29    37    1
    13     7     9    1
    14     7    13    1
    15     8    10    1
    16     8    14    1
    17     4     5    1
    18    28    36    1
    19    30    33    1
    20    30    38    1
    21    31    34    1
    22    31    39    1
    23    32    35    1
    24    32    40    1
    25    41    43   ar
    26    15    19    2
    27    42    43   ar
    28    16    22    2
    29    17    12    1
    30    17    19   ar
    31    17    20   ar
    32    18    19   ar
    33    18    22   ar
    34    18    23    1
    35     9    10    1
    36     9    11    1
    37    10    12    1
    38    11     5    1
    39    33    34    1
    40    33    35    1
    41    34    36    1
    42    35    37    1
    43    37    43    1
    44    20    21   ar
    45    21    22   ar
@<TRIPOS>MOLECULE
*****
 43 45 0 0 0
SMALL
GASTEIGER

@<TRIPOS>ATOM
      1 P          23.4435   72.2320   -3.4040 P.3     1  UNL1        0.2189
      2 O          24.0412   70.7629   -3.0827 O.co2   1  UNL1       -0.4371
      3 O          24.3780   73.1499   -4.1363 O.2     1  UNL1       -0.5170
      4 O          22.9210   72.7616   -1.9672 O.3     1  UNL1       -0.3112
      5 C          23.7944   72.6751   -0.8563 C.3     1  UNL1        0.1811
      6 O          24.7209   70.9840    0.5788 O.3     1  UNL1       -0.3308
      7 O          21.8879   70.2497    1.2320 O.3     1  UNL1       -0.3794
      8 O          22.6352   71.7274    3.3986 O.3     1  UNL1       -0.3779
      9 C          22.4530   71.5368    0.9815 C.3     1  UNL1        0.1713
     10 C          23.2783   71.9869    2.1683 C.3     1  UNL1        0.1895
     11 C          23.5113   71.3822   -0.1022 C.3     1  UNL1        0.1764
     12 C          24.5518   71.1777    1.9920 C.3     1  UNL1        0.2383
     13 H          21.2088   70.3231    1.9213 H       1  UNL1        0.2105
     14 H          21.8307   72.2665    3.4629 H       1  UNL1        0.2106
     15 O          24.5804   73.8761    2.8254 O.2     1  UNL1       -0.2464
     16 O          29.0399   73.6654    3.9710 O.2     1  UNL1       -0.2670
     17 N          25.7068   71.8533    2.5122 N.ar    1  UNL1       -0.2551
     18 N          26.8017   73.7689    3.3942 N.ar    1  UNL1       -0.2743
     19 C          25.6147   73.2103    2.9022 C.ar    1  UNL1        0.3323
     20 C          26.9123   71.1729    2.6332 C.ar    1  UNL1        0.0869
     21 C          28.0353   71.7188    3.1041 C.ar    1  UNL1        0.0795
     22 C          28.0247   73.1328    3.5327 C.ar    1  UNL1        0.2626
     23 H          26.7628   74.7131    3.6702 H       1  UNL1        0.1734
     24 O          22.0707   71.9012   -4.1906 O.3     1  UNL1       -0.2703
     25 P          20.6131   72.5970   -4.1204 P.3     1  UNL1        0.2208
     26 O          20.9445   74.1699   -4.3119 O.co2   1  UNL1       -0.4371
     27 O          19.8366   72.2756   -2.8764 O.2     1  UNL1       -0.5170
     28 O          19.8863   72.1639   -5.4940 O.3     1  UNL1       -0.2858
     29 O          18.7765   70.1462   -6.0478 O.3     1  UNL1       -0.3226
     30 O          20.3282   71.2833   -9.7040 O.3     1  UNL1       -0.3794
     31 O          21.9291   71.5340   -7.2733 O.3     1  UNL1       -0.3775
     32 O          17.4959   71.6313   -9.1489 O.3     1  UNL1       -0.3792
     33 C          19.7815   71.4850   -8.4008 C.3     1  UNL1        0.1718
     34 C          20.6920   70.8362   -7.3578 C.3     1  UNL1        0.1968
     35 C          18.3921   70.8445   -8.3664 C.3     1  UNL1        0.1723
     36 C          20.0283   70.8304   -5.9801 C.3     1  UNL1        0.2706
     37 C          17.8518   70.7617   -6.9417 C.3     1  UNL1        0.1830
     38 H          21.2114   71.6820   -9.7496 H       1  UNL1        0.2105
     39 H          22.3556   71.5419   -8.1442 H       1  UNL1        0.2106
     40 H          17.8284   71.6920  -10.0581 H       1  UNL1        0.2106
     41 O          15.7195   70.2384   -7.7669 O.co2   1  UNL1       -0.5466
     42 O          16.5587   68.8949   -6.1267 O.co2   1  UNL1       -0.5466
     43 C          16.6667   69.8543   -6.8757 C.2     1  UNL1        0.0799
@<TRIPOS>UNITY_ATOM_ATTR
2 1
charge -1
26 1
charge -1
41 1
charge -1
@<TRIPOS>BOND
     1     1     4    1
     2     1    24    1
     3     1     2    1
     4     1     3    2
     5    25    28    1
     6    25    24    1
     7    25    26    1
     8    25    27    2
     9     6    11    1
    10     6    12    1
    11    29    36    1
    12    29    37    1
    13     7     9    1
    14     7    13    1
    15     8    10    1
    16     8    14    1
    17     4     5    1
    18    28    36    1
    19    30    33    1
    20    30    38    1
    21    31    34    1
    22    31    39    1
    23    32    35    1
    24    32    40    1
    25    41    43   ar
    26    15    19    2
    27    42    43   ar
    28    16    22    2
    29    17    12    1
    30    17    19   ar
    31    17    20   ar
    32    18    19   ar
    33    18    22   ar
    34    18    23    1
    35     9    10    1
    36     9    11    1
    37    10    12    1
    38    11     5    1
    39    33    34    1
    40    33    35    1
    41    34    36    1
    42    35    37    1
    43    37    43    1
    44    20    21   ar
    45    21    22   ar
@<TRIPOS>MOLECULE
*****
 43 45 0 0 0
SMALL
GASTEIGER

@<TRIPOS>ATOM
      1 P          23.0007   71.9400   -2.8590 P.3     1  UNL1        0.2189
      2 O          24.2423   71.9813   -3.8962 O.co2   1  UNL1       -0.4371
      3 O          23.1673   70.9908   -1.7088 O.2     1  UNL1       -0.5170
      4 O          21.7135   71.6797   -3.8041 O.3     1  UNL1       -0.3112
      5 C          21.4565   72.5857   -4.8613 C.3     1  UNL1        0.1811
      6 O          20.5469   70.6036   -5.8719 O.3     1  UNL1       -0.3308
      7 O          20.8650   72.0202   -8.4956 O.3     1  UNL1       -0.3794
      8 O          18.2048   72.3189   -7.9759 O.3     1  UNL1       -0.3779
      9 C          20.5042   72.5508   -7.2201 C.3     1  UNL1        0.1713
     10 C          19.0797   72.1689   -6.8775 C.3     1  UNL1        0.1895
     11 C          21.2988   71.8028   -6.1583 C.3     1  UNL1        0.1764
     12 C          19.2362   70.7200   -6.4482 C.3     1  UNL1        0.2383
     13 H          20.3699   72.4827   -9.1903 H       1  UNL1        0.2105
     14 H          18.1386   73.2583   -8.2106 H       1  UNL1        0.2106
     15 O          16.6806   69.6908   -7.0694 O.2     1  UNL1       -0.2464
     16 O          15.5727   69.2554   -2.6166 O.2     1  UNL1       -0.2670
     17 N          18.2600   70.3296   -5.4707 N.ar    1  UNL1       -0.2551
     18 N          16.1309   69.4759   -4.8511 N.ar    1  UNL1       -0.2743
     19 C          17.0060   69.8246   -5.8882 C.ar    1  UNL1        0.3323
     20 C          18.5491   70.4469   -4.1166 C.ar    1  UNL1        0.0869
     21 C          17.7048   70.1104   -3.1396 C.ar    1  UNL1        0.0795
     22 C          16.3730   69.5751   -3.4905 C.ar    1  UNL1        0.2626
     23 H          15.2508   69.1237   -5.1171 H       1  UNL1        0.1734
     24 O          22.8316   73.4903   -2.4336 O.3     1  UNL1       -0.2703
     25 P          23.8187   74.4827   -1.6247 P.3     1  UNL1        0.2208
     26 O          22.8394   75.6886   -1.1699 O.co2   1  UNL1       -0.4371
     27 O          25.0225   74.9247   -2.4054 O.2     1  UNL1       -0.5170
     28 O          24.1589   73.6968   -0.2576 O.3     1  UNL1       -0.2858
     29 O          22.0724   73.9797    0.8266 O.3     1  UNL1       -0.3226
     30 O          23.7825   70.9606    3.0691 O.3     1  UNL1       -0.3794
     31 O          25.3803   73.2468    2.2004 O.3     1  UNL1       -0.3775
     32 O          21.6822   70.3463    1.1553 O.3     1  UNL1       -0.3792
     33 C          23.5218   71.7189    1.8880 C.3     1  UNL1        0.1718
     34 C          23.9631   73.1670    2.1018 C.3     1  UNL1        0.1968
     35 C          22.0186   71.6564    1.6080 C.3     1  UNL1        0.1723
     36 C          23.4930   74.0578    0.9511 C.3     1  UNL1        0.2706
     37 C          21.6092   72.6628    0.5365 C.3     1  UNL1        0.1830
     38 H          24.7319   70.9859    3.2668 H       1  UNL1        0.2105
     39 H          25.6855   72.6837    2.9285 H       1  UNL1        0.2106
     40 H          21.9378   69.6961    1.8281 H       1  UNL1        0.2106
     41 O          19.6852   73.4267    1.6393 O.co2   1  UNL1       -0.5466
     42 O          19.3995   72.4794   -0.4149 O.co2   1  UNL1       -0.5466
     43 C          20.1247   72.8289    0.5043 C.2     1  UNL1        0.0799
@<TRIPOS>UNITY_ATOM_ATTR
2 1
charge -1
26 1
charge -1
41 1
charge -1
@<TRIPOS>BOND
     1     1     4    1
     2     1    24    1
     3     1     2    1
     4     1     3    2
     5    25    28    1
     6    25    24    1
     7    25    26    1
     8    25    27    2
     9     6    11    1
    10     6    12    1
    11    29    36    1
    12    29    37    1
    13     7     9    1
    14     7    13    1
    15     8    10    1
    16     8    14    1
    17     4     5    1
    18    28    36    1
    19    30    33    1
    20    30    38    1
    21    31    34    1
    22    31    39    1
    23    32    35    1
    24    32    40    1
    25    41    43   ar
    26    15    19    2
    27    42    43   ar
    28    16    22    2
    29    17    12    1
    30    17    19   ar
    31    17    20   ar
    32    18    19   ar
    33    18    22   ar
    34    18    23    1
    35     9    10    1
    36     9    11    1
    37    10    12    1
    38    11     5    1
    39    33    34    1
    40    33    35    1
    41    34    36    1
    42    35    37    1
    43    37    43    1
    44    20    21   ar
    45    21    22   ar
@<TRIPOS>MOLECULE
*****
 43 45 0 0 0
SMALL
GASTEIGER

@<TRIPOS>ATOM
      1 P          20.9883   73.6635   -1.9720 P.3     1  UNL1        0.2189
      2 O          20.5484   75.2207   -1.9500 O.co2   1  UNL1       -0.4371
      3 O          19.8697   72.6861   -1.7590 O.2     1  UNL1       -0.5170
      4 O          22.2010   73.5872   -0.9035 O.3     1  UNL1       -0.3112
      5 C          21.9538   73.9941    0.4299 C.3     1  UNL1        0.1811
      6 O          22.5631   71.8752    1.3872 O.3     1  UNL1       -0.3308
      7 O          20.1089   72.1484    3.0883 O.3     1  UNL1       -0.3794
      8 O          22.1034   72.8795    4.7981 O.3     1  UNL1       -0.3779
      9 C          21.0154   73.1568    2.6413 C.3     1  UNL1        0.1713
     10 C          22.3140   73.0745    3.4153 C.3     1  UNL1        0.1895
     11 C          21.4615   72.7958    1.2311 C.3     1  UNL1        0.1764
     12 C          22.9998   71.8903    2.7556 C.3     1  UNL1        0.2383
     13 H          19.8099   72.3574    3.9876 H       1  UNL1        0.2105
     14 H          21.6647   73.6606    5.1716 H       1  UNL1        0.2106
     15 O          24.7725   69.7678    2.1818 O.2     1  UNL1       -0.2464
     16 O          28.4720   72.4188    2.9100 O.2     1  UNL1       -0.2670
     17 N          24.4310   71.9983    2.7877 N.ar    1  UNL1       -0.2551
     18 N          26.6134   71.0899    2.5461 N.ar    1  UNL1       -0.2743
     19 C          25.2308   70.8715    2.4831 C.ar    1  UNL1        0.3323
     20 C          25.0280   73.2093    3.1162 C.ar    1  UNL1        0.0869
     21 C          26.3473   73.4022    3.1720 C.ar    1  UNL1        0.0795
     22 C          27.2538   72.2755    2.8685 C.ar    1  UNL1        0.2626
     23 H          27.1908   70.3196    2.3400 H       1  UNL1        0.1734
     24 O          21.7461   73.5205   -3.3925 O.3     1  UNL1       -0.2703
     25 P          21.9095   72.2554   -4.3858 P.3     1  UNL1        0.2208
     26 O          22.0826   71.0073   -3.3697 O.co2   1  UNL1       -0.4371
     27 O          23.0200   72.3972   -5.3860 O.2     1  UNL1       -0.5170
     28 O          20.4463   72.0526   -5.0342 O.3     1  UNL1       -0.2858
     29 O          19.4152   69.9413   -5.3316 O.3     1  UNL1       -0.3226
     30 O          17.4572   72.2380   -8.1529 O.3     1  UNL1       -0.3794
     31 O          20.3431   72.4946   -7.7783 O.3     1  UNL1       -0.3775
     32 O          16.1244   71.5286   -5.6687 O.3     1  UNL1       -0.3792
     33 C          18.1320   71.9822   -6.9211 C.3     1  UNL1        0.1718
     34 C          19.5423   71.4660   -7.2078 C.3     1  UNL1        0.1968
     35 C          17.3277   70.9331   -6.1502 C.3     1  UNL1        0.1723
     36 C          20.2124   70.9654   -5.9276 C.3     1  UNL1        0.2706
     37 C          18.1144   70.3919   -4.9600 C.3     1  UNL1        0.1830
     38 H          17.9502   72.9020   -8.6601 H       1  UNL1        0.2105
     39 H          19.9236   72.8171   -8.5910 H       1  UNL1        0.2106
     40 H          15.6144   71.8772   -6.4164 H       1  UNL1        0.2106
     41 O          16.4826   68.7306   -5.2406 O.co2   1  UNL1       -0.5466
     42 O          17.7930   68.5976   -3.3793 O.co2   1  UNL1       -0.5466
     43 C          17.4733   69.1559   -4.4181 C.2     1  UNL1        0.0799
@<TRIPOS>UNITY_ATOM_ATTR
2 1
charge -1
26 1
charge -1
41 1
charge -1
@<TRIPOS>BOND
     1     1     4    1
     2     1    24    1
     3     1     2    1
     4     1     3    2
     5    25    28    1
     6    25    24    1
     7    25    26    1
     8    25    27    2
     9     6    11    1
    10     6    12    1
    11    29    36    1
    12    29    37    1
    13     7     9    1
    14     7    13    1
    15     8    10    1
    16     8    14    1
    17     4     5    1
    18    28    36    1
    19    30    33    1
    20    30    38    1
    21    31    34    1
    22    31    39    1
    23    32    35    1
    24    32    40    1
    25    41    43   ar
    26    15    19    2
    27    42    43   ar
    28    16    22    2
    29    17    12    1
    30    17    19   ar
    31    17    20   ar
    32    18    19   ar
    33    18    22   ar
    34    18    23    1
    35     9    10    1
    36     9    11    1
    37    10    12    1
    38    11     5    1
    39    33    34    1
    40    33    35    1
    41    34    36    1
    42    35    37    1
    43    37    43    1
    44    20    21   ar
    45    21    22   ar
@<TRIPOS>MOLECULE
*****
 43 45 0 0 0
SMALL
GASTEIGER

@<TRIPOS>ATOM
      1 P          21.8545   72.5190   -5.6895 P.3     1  UNL1        0.2189
      2 O          21.1896   73.9545   -5.3484 O.co2   1  UNL1       -0.4371
      3 O          23.0927   72.5792   -6.5351 O.2     1  UNL1       -0.5170
      4 O          20.6280   71.6580   -6.2997 O.3     1  UNL1       -0.3112
      5 C          20.1258   72.0076   -7.5764 C.3     1  UNL1        0.1811
      6 O          18.9330   69.9660   -7.1446 O.3     1  UNL1       -0.3308
      7 O          18.1220   70.0476  -10.0303 O.3     1  UNL1       -0.3794
      8 O          15.8963   70.9788   -8.7592 O.3     1  UNL1       -0.3779
      9 C          18.2979   71.1252   -9.1102 C.3     1  UNL1        0.1713
     10 C          17.1457   71.1701   -8.1291 C.3     1  UNL1        0.1895
     11 C          19.4737   70.7831   -8.2054 C.3     1  UNL1        0.1764
     12 C          17.4988   70.0410   -7.1760 C.3     1  UNL1        0.2383
     13 H          17.3760   70.2434  -10.6192 H       1  UNL1        0.2105
     14 H          15.7173   71.7237   -9.3551 H       1  UNL1        0.2106
     15 O          16.2048   68.0994   -5.5847 O.2     1  UNL1       -0.2464
     16 O          15.6816   71.0522   -2.0846 O.2     1  UNL1       -0.2670
     17 N          17.0143   70.2755   -5.8452 N.ar    1  UNL1       -0.2551
     18 N          15.9445   69.5722   -3.8434 N.ar    1  UNL1       -0.2743
     19 C          16.3782   69.2323   -5.1315 C.ar    1  UNL1        0.3323
     20 C          17.1723   71.5258   -5.2598 C.ar    1  UNL1        0.0869
     21 C          16.7537   71.8347   -4.0309 C.ar    1  UNL1        0.0795
     22 C          16.0784   70.8016   -3.2186 C.ar    1  UNL1        0.2626
     23 H          15.4969   68.8628   -3.3279 H       1  UNL1        0.1734
     24 O          22.0683   71.8617   -4.2283 O.3     1  UNL1       -0.2703
     25 P          23.3018   71.9646   -3.1883 P.3     1  UNL1        0.2208
     26 O          24.0261   73.3496   -3.6095 O.co2   1  UNL1       -0.4371
     27 O          24.2084   70.7678   -3.1880 O.2     1  UNL1       -0.5170
     28 O          22.6119   72.2822   -1.7651 O.3     1  UNL1       -0.2858
     29 O          22.5713   74.1121   -0.2621 O.3     1  UNL1       -0.3226
     30 O          22.9753   70.9123    2.3198 O.3     1  UNL1       -0.3794
     31 O          24.5007   71.0080   -0.1699 O.3     1  UNL1       -0.3775
     32 O          20.4086   72.2487    2.0428 O.3     1  UNL1       -0.3792
     33 C          22.5418   71.5873    1.1389 C.3     1  UNL1        0.1718
     34 C          23.7579   72.0972    0.3653 C.3     1  UNL1        0.1968
     35 C          21.6517   72.7576    1.5630 C.3     1  UNL1        0.1723
     36 C          23.3317   73.0190   -0.7782 C.3     1  UNL1        0.2706
     37 C          21.3749   73.6990    0.3944 C.3     1  UNL1        0.1830
     38 H          23.5427   70.1643    2.0750 H       1  UNL1        0.2105
     39 H          24.7742   70.4188    0.5502 H       1  UNL1        0.2106
     40 H          20.5707   71.6479    2.7868 H       1  UNL1        0.2106
     41 O          20.5937   74.9500    2.2182 O.co2   1  UNL1       -0.5466
     42 O          20.5374   75.9506    0.1701 O.co2   1  UNL1       -0.5466
     43 C          20.7951   74.9884    0.8777 C.2     1  UNL1        0.0799
@<TRIPOS>UNITY_ATOM_ATTR
2 1
charge -1
26 1
charge -1
41 1
charge -1
@<TRIPOS>BOND
     1     1     4    1
     2     1    24    1
     3     1     2    1
     4     1     3    2
     5    25    28    1
     6    25    24    1
     7    25    26    1
     8    25    27    2
     9     6    11    1
    10     6    12    1
    11    29    36    1
    12    29    37    1
    13     7     9    1
    14     7    13    1
    15     8    10    1
    16     8    14    1
    17     4     5    1
    18    28    36    1
    19    30    33    1
    20    30    38    1
    21    31    34    1
    22    31    39    1
    23    32    35    1
    24    32    40    1
    25    41    43   ar
    26    15    19    2
    27    42    43   ar
    28    16    22    2
    29    17    12    1
    30    17    19   ar
    31    17    20   ar
    32    18    19   ar
    33    18    22   ar
    34    18    23    1
    35     9    10    1
    36     9    11    1
    37    10    12    1
    38    11     5    1
    39    33    34    1
    40    33    35    1
    41    34    36    1
    42    35    37    1
    43    37    43    1
    44    20    21   ar
    45    21    22   ar
@<TRIPOS>MOLECULE
*****
 43 45 0 0 0
SMALL
GASTEIGER

@<TRIPOS>ATOM
      1 P          22.7482   71.0695    0.7696 P.3     1  UNL1        0.2189
      2 O          24.2106   70.8380    1.4227 O.co2   1  UNL1       -0.4371
      3 O          21.7340   70.0128    1.0962 O.2     1  UNL1       -0.5170
      4 O          23.0554   71.2861   -0.8041 O.3     1  UNL1       -0.3112
      5 C          21.9817   71.1906   -1.7220 C.3     1  UNL1        0.1811
      6 O          21.7826   70.2012   -3.9036 O.3     1  UNL1       -0.3308
      7 O          23.3766   72.5359   -4.9036 O.3     1  UNL1       -0.3794
      8 O          20.8256   73.2227   -5.5795 O.3     1  UNL1       -0.3779
      9 C          22.3922   72.4899   -3.8704 C.3     1  UNL1        0.1713
     10 C          21.0077   72.3672   -4.4707 C.3     1  UNL1        0.1895
     11 C          22.5410   71.1630   -3.1386 C.3     1  UNL1        0.1764
     12 C          20.9584   70.8974   -4.8518 C.3     1  UNL1        0.2383
     13 H          23.3012   73.3749   -5.3853 H       1  UNL1        0.2105
     14 H          20.8652   74.1467   -5.2848 H       1  UNL1        0.2106
     15 O          19.0582   71.1274   -6.9286 O.2     1  UNL1       -0.2464
     16 O          15.8838   68.8016   -4.5290 O.2     1  UNL1       -0.2670
     17 N          19.6278   70.3613   -4.7962 N.ar    1  UNL1       -0.2551
     18 N          17.4786   69.9697   -5.7311 N.ar    1  UNL1       -0.2743
     19 C          18.7515   70.5322   -5.8939 C.ar    1  UNL1        0.3323
     20 C          19.2037   69.6741   -3.6653 C.ar    1  UNL1        0.0869
     21 C          17.9873   69.1435   -3.5248 C.ar    1  UNL1        0.0795
     22 C          17.0107   69.2783   -4.6254 C.ar    1  UNL1        0.2626
     23 H          16.8502   70.0776   -6.4813 H       1  UNL1        0.1734
     24 O          22.3577   72.5556    1.2715 O.3     1  UNL1       -0.2703
     25 P          23.2247   73.9190    1.3274 P.3     1  UNL1        0.2208
     26 O          22.2749   74.9924    0.5750 O.co2   1  UNL1       -0.4371
     27 O          24.6026   73.7969    0.7441 O.2     1  UNL1       -0.5170
     28 O          23.1910   74.3622    2.8782 O.3     1  UNL1       -0.2858
     29 O          24.7579   74.0971    4.6342 O.3     1  UNL1       -0.3226
     30 O          21.1695   73.6971    6.6420 O.3     1  UNL1       -0.3794
     31 O          21.5582   72.4319    4.0377 O.3     1  UNL1       -0.3775
     32 O          22.6990   76.1593    6.8637 O.3     1  UNL1       -0.3792
     33 C          22.0503   74.1919    5.6334 C.3     1  UNL1        0.1718
     34 C          22.5953   73.0234    4.8118 C.3     1  UNL1        0.1968
     35 C          23.1946   74.9340    6.3275 C.3     1  UNL1        0.1723
     36 C          23.7128   73.4867    3.8761 C.3     1  UNL1        0.2706
     37 C          24.3256   75.2501    5.3531 C.3     1  UNL1        0.1830
     38 H          20.4341   73.2215    6.2244 H       1  UNL1        0.2105
     39 H          20.8456   72.1359    4.6250 H       1  UNL1        0.2106
     40 H          21.9784   75.9721    7.4855 H       1  UNL1        0.2106
     41 O          26.5449   74.7533    5.9271 O.co2   1  UNL1       -0.5466
     42 O          25.6689   76.6937    6.7434 O.co2   1  UNL1       -0.5466
     43 C          25.5574   75.6687    6.0879 C.2     1  UNL1        0.0799
@<TRIPOS>UNITY_ATOM_ATTR
2 1
charge -1
26 1
charge -1
41 1
charge -1
@<TRIPOS>BOND
     1     1     4    1
     2     1    24    1
     3     1     2    1
     4     1     3    2
     5    25    28    1
     6    25    24    1
     7    25    26    1
     8    25    27    2
     9     6    11    1
    10     6    12    1
    11    29    36    1
    12    29    37    1
    13     7     9    1
    14     7    13    1
    15     8    10    1
    16     8    14    1
    17     4     5    1
    18    28    36    1
    19    30    33    1
    20    30    38    1
    21    31    34    1
    22    31    39    1
    23    32    35    1
    24    32    40    1
    25    41    43   ar
    26    15    19    2
    27    42    43   ar
    28    16    22    2
    29    17    12    1
    30    17    19   ar
    31    17    20   ar
    32    18    19   ar
    33    18    22   ar
    34    18    23    1
    35     9    10    1
    36     9    11    1
    37    10    12    1
    38    11     5    1
    39    33    34    1
    40    33    35    1
    41    34    36    1
    42    35    37    1
    43    37    43    1
    44    20    21   ar
    45    21    22   ar
@<TRIPOS>MOLECULE
*****
 43 45 0 0 0
SMALL
GASTEIGER

@<TRIPOS>ATOM
      1 P          21.8427   72.4577   -5.6901 P.3     1  UNL1        0.2189
      2 O          21.1889   73.8909   -5.3198 O.co2   1  UNL1       -0.4371
      3 O          23.0745   72.5250   -6.5445 O.2     1  UNL1       -0.5170
      4 O          20.6065   71.6139   -6.3047 O.3     1  UNL1       -0.3112
      5 C          20.1204   71.9639   -7.5876 C.3     1  UNL1        0.1811
      6 O          18.8999   69.9380   -7.1591 O.3     1  UNL1       -0.3308
      7 O          18.1185   70.0166  -10.0530 O.3     1  UNL1       -0.3794
      8 O          15.8913   70.9787   -8.8081 O.3     1  UNL1       -0.3779
      9 C          18.2977   71.0960   -9.1358 C.3     1  UNL1        0.1713
     10 C          17.1364   71.1583   -8.1663 C.3     1  UNL1        0.1895
     11 C          19.4605   70.7443   -8.2178 C.3     1  UNL1        0.1764
     12 C          17.4671   70.0294   -7.2051 C.3     1  UNL1        0.2383
     13 H          17.3807   70.2183  -10.6501 H       1  UNL1        0.2105
     14 H          15.7268   71.7231   -9.4088 H       1  UNL1        0.2106
     15 O          16.3019   68.0619   -5.5474 O.2     1  UNL1       -0.2464
     16 O          15.6028   71.0858   -2.1399 O.2     1  UNL1       -0.2670
     17 N          16.9721   70.2752   -5.8801 N.ar    1  UNL1       -0.2551
     18 N          15.9539   69.5701   -3.8523 N.ar    1  UNL1       -0.2743
     19 C          16.4049   69.2173   -5.1310 C.ar    1  UNL1        0.3323
     20 C          17.0526   71.5509   -5.3353 C.ar    1  UNL1        0.0869
     21 C          16.6185   71.8719   -4.1149 C.ar    1  UNL1        0.0795
     22 C          16.0117   70.8247   -3.2672 C.ar    1  UNL1        0.2626
     23 H          15.5532   68.8507   -3.3126 H       1  UNL1        0.1734
     24 O          22.0643   71.7748   -4.2418 O.3     1  UNL1       -0.2703
     25 P          23.2422   71.9601   -3.1500 P.3     1  UNL1        0.2208
     26 O          23.9068   73.3780   -3.5601 O.co2   1  UNL1       -0.4371
     27 O          24.2127   70.8162   -3.0910 O.2     1  UNL1       -0.5170
     28 O          22.4723   72.2571   -1.7638 O.3     1  UNL1       -0.2858
     29 O          23.0934   70.6837   -0.1062 O.3     1  UNL1       -0.3226
     30 O          20.1810   72.8631    1.8525 O.3     1  UNL1       -0.3794
     31 O          19.8212   72.0851   -0.9403 O.3     1  UNL1       -0.3775
     32 O          22.9878   73.2804    2.4839 O.3     1  UNL1       -0.3792
     33 C          21.2535   72.6510    0.9344 C.3     1  UNL1        0.1718
     34 C          20.8485   71.5901   -0.0892 C.3     1  UNL1        0.1968
     35 C          22.4730   72.1832    1.7318 C.3     1  UNL1        0.1723
     36 C          22.0448   71.1704   -0.9446 C.3     1  UNL1        0.2706
     37 C          23.5739   71.6631    0.8120 C.3     1  UNL1        0.1830
     38 H          19.3948   73.1610    1.3684 H       1  UNL1        0.2105
     39 H          19.0591   72.3535   -0.4041 H       1  UNL1        0.2106
     40 H          22.2969   73.6209    3.0734 H       1  UNL1        0.2106
     41 O          24.1826   70.6956    2.8601 O.co2   1  UNL1       -0.5466
     42 O          25.6851   70.5456    1.1515 O.co2   1  UNL1       -0.5466
     43 C          24.6064   70.9149    1.5907 C.2     1  UNL1        0.0799
@<TRIPOS>UNITY_ATOM_ATTR
2 1
charge -1
26 1
charge -1
41 1
charge -1
@<TRIPOS>BOND
     1     1     4    1
     2     1    24    1
     3     1     2    1
     4     1     3    2
     5    25    28    1
     6    25    24    1
     7    25    26    1
     8    25    27    2
     9     6    11    1
    10     6    12    1
    11    29    36    1
    12    29    37    1
    13     7     9    1
    14     7    13    1
    15     8    10    1
    16     8    14    1
    17     4     5    1
    18    28    36    1
    19    30    33    1
    20    30    38    1
    21    31    34    1
    22    31    39    1
    23    32    35    1
    24    32    40    1
    25    41    43   ar
    26    15    19    2
    27    42    43   ar
    28    16    22    2
    29    17    12    1
    30    17    19   ar
    31    17    20   ar
    32    18    19   ar
    33    18    22   ar
    34    18    23    1
    35     9    10    1
    36     9    11    1
    37    10    12    1
    38    11     5    1
    39    33    34    1
    40    33    35    1
    41    34    36    1
    42    35    37    1
    43    37    43    1
    44    20    21   ar
    45    21    22   ar
@<TRIPOS>MOLECULE
*****
 43 45 0 0 0
SMALL
GASTEIGER

@<TRIPOS>ATOM
      1 P          22.1021   72.7577   -4.6965 P.3     1  UNL1        0.2189
      2 O          23.6902   72.4996   -4.8704 O.co2   1  UNL1       -0.4371
      3 O          21.6376   74.1315   -5.0823 O.2     1  UNL1       -0.5170
      4 O          21.8020   72.3178   -3.1687 O.3     1  UNL1       -0.3112
      5 C          21.2364   71.0418   -2.9312 C.3     1  UNL1        0.1811
      6 O          20.5839   70.5866   -0.6630 O.3     1  UNL1       -0.3308
      7 O          18.4477   72.6533   -1.0592 O.3     1  UNL1       -0.3794
      8 O          20.3491   74.0216    0.3368 O.3     1  UNL1       -0.3779
      9 C          19.7810   72.6226   -1.5691 C.3     1  UNL1        0.1713
     10 C          20.7706   72.9404   -0.4682 C.3     1  UNL1        0.1895
     11 C          20.1247   71.1763   -1.8986 C.3     1  UNL1        0.1764
     12 C          20.8244   71.6285    0.2960 C.3     1  UNL1        0.2383
     13 H          18.2055   73.5674   -0.8414 H       1  UNL1        0.2105
     14 H          20.3316   74.8332   -0.1952 H       1  UNL1        0.2106
     15 O          21.3397   71.9716    3.0516 O.2     1  UNL1       -0.2464
     16 O          25.7574   70.7510    2.5637 O.2     1  UNL1       -0.2670
     17 N          22.1002   71.4073    0.9158 N.ar    1  UNL1       -0.2551
     18 N          23.5397   71.3643    2.8058 N.ar    1  UNL1       -0.2743
     19 C          22.2530   71.6085    2.3080 C.ar    1  UNL1        0.3323
     20 C          23.1821   70.9944    0.1477 C.ar    1  UNL1        0.0869
     21 C          24.4026   70.7656    0.6365 C.ar    1  UNL1        0.0795
     22 C          24.6470   70.9532    2.0816 C.ar    1  UNL1        0.2626
     23 H          23.6711   71.4997    3.7721 H       1  UNL1        0.1734
     24 O          21.4432   71.5580   -5.5563 O.3     1  UNL1       -0.2703
     25 P          20.9197   71.5111   -7.0851 P.3     1  UNL1        0.2208
     26 O          21.1498   69.9654   -7.5076 O.co2   1  UNL1       -0.4371
     27 O          21.5823   72.5057   -7.9937 O.2     1  UNL1       -0.5170
     28 O          19.3180   71.6687   -6.9744 O.3     1  UNL1       -0.2858
     29 O          17.8215   70.0180   -6.1713 O.3     1  UNL1       -0.3226
     30 O          15.3746   72.2341   -8.6552 O.3     1  UNL1       -0.3794
     31 O          18.0986   71.5656   -9.4721 O.3     1  UNL1       -0.3775
     32 O          15.1745   72.5268   -5.7698 O.3     1  UNL1       -0.3792
     33 C          16.4534   72.0145   -7.7464 C.3     1  UNL1        0.1718
     34 C          17.4314   71.0046   -8.3474 C.3     1  UNL1        0.1968
     35 C          15.8682   71.4755   -6.4391 C.3     1  UNL1        0.1723
     36 C          18.4733   70.5710   -7.3153 C.3     1  UNL1        0.2706
     37 C          16.9618   70.9473   -5.5152 C.3     1  UNL1        0.1830
     38 H          15.7225   72.5768   -9.4935 H       1  UNL1        0.2105
     39 H          17.4434   71.8431  -10.1309 H       1  UNL1        0.2106
     40 H          14.4757   72.8719   -6.3472 H       1  UNL1        0.2106
     41 O          16.6583   68.8204   -4.5741 O.co2   1  UNL1       -0.5466
     42 O          15.7269   70.5871   -3.4740 O.co2   1  UNL1       -0.5466
     43 C          16.3739   70.1357   -4.4071 C.2     1  UNL1        0.0799
@<TRIPOS>UNITY_ATOM_ATTR
2 1
charge -1
26 1
charge -1
41 1
charge -1
@<TRIPOS>BOND
     1     1     4    1
     2     1    24    1
     3     1     2    1
     4     1     3    2
     5    25    28    1
     6    25    24    1
     7    25    26    1
     8    25    27    2
     9     6    11    1
    10     6    12    1
    11    29    36    1
    12    29    37    1
    13     7     9    1
    14     7    13    1
    15     8    10    1
    16     8    14    1
    17     4     5    1
    18    28    36    1
    19    30    33    1
    20    30    38    1
    21    31    34    1
    22    31    39    1
    23    32    35    1
    24    32    40    1
    25    41    43   ar
    26    15    19    2
    27    42    43   ar
    28    16    22    2
    29    17    12    1
    30    17    19   ar
    31    17    20   ar
    32    18    19   ar
    33    18    22   ar
    34    18    23    1
    35     9    10    1
    36     9    11    1
    37    10    12    1
    38    11     5    1
    39    33    34    1
    40    33    35    1
    41    34    36    1
    42    35    37    1
    43    37    43    1
    44    20    21   ar
    45    21    22   ar
@<TRIPOS>MOLECULE
*****
 43 45 0 0 0
SMALL
GASTEIGER

@<TRIPOS>ATOM
      1 P          20.3450   73.0620   -3.6869 P.3     1  UNL1        0.2189
      2 O          19.9228   74.6225   -3.6123 O.co2   1  UNL1       -0.4371
      3 O          21.5103   72.7632   -4.5839 O.2     1  UNL1       -0.5170
      4 O          18.9638   72.3029   -4.0529 O.3     1  UNL1       -0.3112
      5 C          17.7467   73.0148   -3.9256 C.3     1  UNL1        0.1811
      6 O          16.2571   71.7901   -5.3604 O.3     1  UNL1       -0.3308
      7 O          15.7115   70.0386   -2.9885 O.3     1  UNL1       -0.3794
      8 O          17.4676   68.5426   -4.4425 O.3     1  UNL1       -0.3779
      9 C          16.9305   70.6662   -3.3870 C.3     1  UNL1        0.1713
     10 C          17.5247   69.9471   -4.5795 C.3     1  UNL1        0.1895
     11 C          16.5873   72.0281   -3.9749 C.3     1  UNL1        0.1764
     12 C          16.6607   70.4590   -5.7193 C.3     1  UNL1        0.2383
     13 H          15.9053   69.1665   -2.6096 H       1  UNL1        0.2105
     14 H          18.0341   68.2664   -3.7044 H       1  UNL1        0.2106
     15 O          15.4240   70.6335   -8.2524 O.2     1  UNL1       -0.2464
     16 O          19.4827   70.6346  -10.4366 O.2     1  UNL1       -0.2670
     17 N          17.3703   70.5065   -6.9663 N.ar    1  UNL1       -0.2551
     18 N          17.4466   70.6328   -9.3379 N.ar    1  UNL1       -0.2743
     19 C          16.6538   70.5937   -8.1833 C.ar    1  UNL1        0.3323
     20 C          18.7594   70.4685   -6.9757 C.ar    1  UNL1        0.0869
     21 C          19.5012   70.5067   -8.0843 C.ar    1  UNL1        0.0795
     22 C          18.8303   70.5970   -9.3977 C.ar    1  UNL1        0.2626
     23 H          16.9701   70.6915  -10.1975 H       1  UNL1        0.1734
     24 O          20.5731   72.6731   -2.1346 O.3     1  UNL1       -0.2703
     25 P          20.8163   71.2417   -1.4237 P.3     1  UNL1        0.2208
     26 O          22.1043   70.6533   -2.2079 O.co2   1  UNL1       -0.4371
     27 O          19.6184   70.3367   -1.4357 O.2     1  UNL1       -0.5170
     28 O          21.3667   71.6042    0.0488 O.3     1  UNL1       -0.2858
     29 O          21.8511   73.7051    1.0289 O.3     1  UNL1       -0.3226
     30 O          24.6643   71.2707    2.8253 O.3     1  UNL1       -0.3794
     31 O          24.0823   71.0076   -0.0254 O.3     1  UNL1       -0.3775
     32 O          22.3194   72.1336    4.3112 O.3     1  UNL1       -0.3792
     33 C          23.4062   71.5897    2.2308 C.3     1  UNL1        0.1718
     34 C          23.6258   72.0748    0.7976 C.3     1  UNL1        0.1968
     35 C          22.7515   72.6889    3.0704 C.3     1  UNL1        0.1723
     36 C          22.3334   72.6410    0.2077 C.3     1  UNL1        0.2706
     37 C          21.5432   73.2893    2.3576 C.3     1  UNL1        0.1830
     38 H          25.0990   70.5741    2.3086 H       1  UNL1        0.2105
     39 H          24.9020   70.6434    0.3433 H       1  UNL1        0.2106
     40 H          23.0791   71.7480    4.7749 H       1  UNL1        0.2106
     41 O          20.6008   74.3124    4.2461 O.co2   1  UNL1       -0.5466
     42 O          21.2161   75.6740    2.5237 O.co2   1  UNL1       -0.5466
     43 C          21.1162   74.5604    3.0165 C.2     1  UNL1        0.0799
@<TRIPOS>UNITY_ATOM_ATTR
2 1
charge -1
26 1
charge -1
41 1
charge -1
@<TRIPOS>BOND
     1     1     4    1
     2     1    24    1
     3     1     2    1
     4     1     3    2
     5    25    28    1
     6    25    24    1
     7    25    26    1
     8    25    27    2
     9     6    11    1
    10     6    12    1
    11    29    36    1
    12    29    37    1
    13     7     9    1
    14     7    13    1
    15     8    10    1
    16     8    14    1
    17     4     5    1
    18    28    36    1
    19    30    33    1
    20    30    38    1
    21    31    34    1
    22    31    39    1
    23    32    35    1
    24    32    40    1
    25    41    43   ar
    26    15    19    2
    27    42    43   ar
    28    16    22    2
    29    17    12    1
    30    17    19   ar
    31    17    20   ar
    32    18    19   ar
    33    18    22   ar
    34    18    23    1
    35     9    10    1
    36     9    11    1
    37    10    12    1
    38    11     5    1
    39    33    34    1
    40    33    35    1
    41    34    36    1
    42    35    37    1
    43    37    43    1
    44    20    21   ar
    45    21    22   ar
@<TRIPOS>MOLECULE
*****
 43 45 0 0 0
SMALL
GASTEIGER

@<TRIPOS>ATOM
      1 P          20.8230   71.5029   -1.1343 P.3     1  UNL1        0.2189
      2 O          22.2019   70.7907   -0.6761 O.co2   1  UNL1       -0.4371
      3 O          19.6964   70.5615   -1.4449 O.2     1  UNL1       -0.5170
      4 O          21.2736   72.4817   -2.3413 O.3     1  UNL1       -0.3112
      5 C          20.6057   72.3733   -3.5850 C.3     1  UNL1        0.1811
      6 O          20.8965   70.7430   -5.3271 O.3     1  UNL1       -0.3308
      7 O          23.2301   72.3959   -6.2289 O.3     1  UNL1       -0.3794
      8 O          21.2725   73.1220   -7.9828 O.3     1  UNL1       -0.3779
      9 C          21.9829   72.8185   -5.6773 C.3     1  UNL1        0.1713
     10 C          20.8793   72.6714   -6.7034 C.3     1  UNL1        0.1895
     11 C          21.5702   71.8054   -4.6182 C.3     1  UNL1        0.1764
     12 C          20.6116   71.1765   -6.6666 C.3     1  UNL1        0.2383
     13 H          23.5143   73.0278   -6.9083 H       1  UNL1        0.2105
     14 H          21.4307   74.0791   -7.9540 H       1  UNL1        0.2106
     15 O          19.6345   70.7578   -9.2831 O.2     1  UNL1       -0.2464
     16 O          15.3614   69.9524   -7.7547 O.2     1  UNL1       -0.2670
     17 N          19.2481   70.8560   -6.9811 N.ar    1  UNL1       -0.2551
     18 N          17.5070   70.3581   -8.5195 N.ar    1  UNL1       -0.2743
     19 C          18.8605   70.6656   -8.3285 C.ar    1  UNL1        0.3323
     20 C          18.3120   70.7318   -5.9617 C.ar    1  UNL1        0.0869
     21 C          17.0253   70.4380   -6.1593 C.ar    1  UNL1        0.0795
     22 C          16.5383   70.2245   -7.5379 C.ar    1  UNL1        0.2626
     23 H          17.2130   70.2231   -9.4494 H       1  UNL1        0.1734
     24 O          20.5262   72.5319    0.0764 O.3     1  UNL1       -0.2703
     25 P          20.8781   74.1006    0.2465 P.3     1  UNL1        0.2208
     26 O          19.4357   74.7734    0.5417 O.co2   1  UNL1       -0.4371
     27 O          21.6117   74.6971   -0.9196 O.2     1  UNL1       -0.5170
     28 O          21.6658   74.1934    1.6513 O.3     1  UNL1       -0.2858
     29 O          23.8999   73.5864    2.1508 O.3     1  UNL1       -0.3226
     30 O          22.0095   72.8737    5.7545 O.3     1  UNL1       -0.3794
     31 O          20.7390   72.1057    3.2384 O.3     1  UNL1       -0.3775
     32 O          23.6787   75.2306    5.4234 O.3     1  UNL1       -0.3792
     33 C          22.2336   73.5336    4.5086 C.3     1  UNL1        0.1718
     34 C          22.0915   72.5293    3.3646 C.3     1  UNL1        0.1968
     35 C          23.6476   74.1185    4.5309 C.3     1  UNL1        0.1723
     36 C          22.5475   73.1414    2.0394 C.3     1  UNL1        0.2706
     37 C          24.0761   74.5929    3.1453 C.3     1  UNL1        0.1830
     38 H          21.1167   72.4939    5.7634 H       1  UNL1        0.2105
     39 H          20.4430   71.7165    4.0758 H       1  UNL1        0.2106
     40 H          23.4078   74.9421    6.3090 H       1  UNL1        0.2106
     41 O          25.9139   75.3396    1.8938 O.co2   1  UNL1       -0.5466
     42 O          26.3198   74.6543    4.0303 O.co2   1  UNL1       -0.5466
     43 C          25.5471   74.8511    3.1044 C.2     1  UNL1        0.0799
@<TRIPOS>UNITY_ATOM_ATTR
2 1
charge -1
26 1
charge -1
41 1
charge -1
@<TRIPOS>BOND
     1     1     4    1
     2     1    24    1
     3     1     2    1
     4     1     3    2
     5    25    28    1
     6    25    24    1
     7    25    26    1
     8    25    27    2
     9     6    11    1
    10     6    12    1
    11    29    36    1
    12    29    37    1
    13     7     9    1
    14     7    13    1
    15     8    10    1
    16     8    14    1
    17     4     5    1
    18    28    36    1
    19    30    33    1
    20    30    38    1
    21    31    34    1
    22    31    39    1
    23    32    35    1
    24    32    40    1
    25    41    43   ar
    26    15    19    2
    27    42    43   ar
    28    16    22    2
    29    17    12    1
    30    17    19   ar
    31    17    20   ar
    32    18    19   ar
    33    18    22   ar
    34    18    23    1
    35     9    10    1
    36     9    11    1
    37    10    12    1
    38    11     5    1
    39    33    34    1
    40    33    35    1
    41    34    36    1
    42    35    37    1
    43    37    43    1
    44    20    21   ar
    45    21    22   ar
@<TRIPOS>MOLECULE
*****
 43 45 0 0 0
SMALL
GASTEIGER

@<TRIPOS>ATOM
      1 P          21.6202   72.9263   -1.4544 P.3     1  UNL1        0.2189
      2 O          21.0653   71.7205   -0.5287 O.co2   1  UNL1       -0.4371
      3 O          23.1121   73.0877   -1.4574 O.2     1  UNL1       -0.5170
      4 O          20.7751   74.2150   -0.9616 O.3     1  UNL1       -0.3112
      5 C          21.4094   75.1562   -0.1151 C.3     1  UNL1        0.1811
      6 O          21.2046   73.7877    1.8503 O.3     1  UNL1       -0.3308
      7 O          20.3504   76.2850    3.2735 O.3     1  UNL1       -0.3794
      8 O          22.9578   76.0301    4.0304 O.3     1  UNL1       -0.3779
      9 C          21.3186   76.1219    2.2368 C.3     1  UNL1        0.1713
     10 C          22.5735   75.4789    2.7881 C.3     1  UNL1        0.1895
     11 C          20.8070   75.0535    1.2802 C.3     1  UNL1        0.1764
     12 C          22.1590   74.0215    2.8981 C.3     1  UNL1        0.2383
     13 H          20.6553   76.9630    3.8973 H       1  UNL1        0.2105
     14 H          23.2126   76.9584    3.9072 H       1  UNL1        0.2106
     15 O          21.9111   71.2237    2.6029 O.2     1  UNL1       -0.2464
     16 O          26.4743   70.6718    2.2622 O.2     1  UNL1       -0.2670
     17 N          23.2659   73.1229    2.7306 N.ar    1  UNL1       -0.2551
     18 N          24.1841   70.9514    2.4345 N.ar    1  UNL1       -0.2743
     19 C          23.0328   71.7342    2.5910 C.ar    1  UNL1        0.3323
     20 C          24.5638   73.6185    2.7042 C.ar    1  UNL1        0.0869
     21 C          25.6513   72.8598    2.5541 C.ar    1  UNL1        0.0795
     22 C          25.4952   71.3983    2.4026 C.ar    1  UNL1        0.2626
     23 H          24.0472   69.9812    2.3375 H       1  UNL1        0.1734
     24 O          20.9753   72.6001   -2.9003 O.3     1  UNL1       -0.2703
     25 P          21.3661   71.4926   -4.0113 P.3     1  UNL1        0.2208
     26 O          22.1224   70.3521   -3.1467 O.co2   1  UNL1       -0.4371
     27 O          22.1677   72.0301   -5.1613 O.2     1  UNL1       -0.5170
     28 O          19.9609   70.8204   -4.4310 O.3     1  UNL1       -0.2858
     29 O          17.7763   71.5581   -4.9717 O.3     1  UNL1       -0.3226
     30 O          16.9908   68.3831   -2.4478 O.3     1  UNL1       -0.3794
     31 O          19.1362   70.2682   -1.8327 O.3     1  UNL1       -0.3775
     32 O          16.6259   68.0912   -5.3170 O.3     1  UNL1       -0.3792
     33 C          17.7208   69.1162   -3.4314 C.3     1  UNL1        0.1718
     34 C          18.1580   70.4601   -2.8481 C.3     1  UNL1        0.1968
     35 C          16.8036   69.3325   -4.6372 C.3     1  UNL1        0.1723
     36 C          18.7394   71.3652   -3.9351 C.3     1  UNL1        0.2706
     37 C          17.3971   70.3431   -5.6144 C.3     1  UNL1        0.1830
     38 H          17.5537   68.2337   -1.6718 H       1  UNL1        0.2105
     39 H          18.7741   69.6945   -1.1398 H       1  UNL1        0.2106
     40 H          16.2488   67.4390   -4.7060 H       1  UNL1        0.2106
     41 O          15.8852   72.0135   -6.2664 O.co2   1  UNL1       -0.5466
     42 O          16.0121   70.1548   -7.5810 O.co2   1  UNL1       -0.5466
     43 C          16.3700   70.7923   -6.6020 C.2     1  UNL1        0.0799
@<TRIPOS>UNITY_ATOM_ATTR
2 1
charge -1
26 1
charge -1
41 1
charge -1
@<TRIPOS>BOND
     1     1     4    1
     2     1    24    1
     3     1     2    1
     4     1     3    2
     5    25    28    1
     6    25    24    1
     7    25    26    1
     8    25    27    2
     9     6    11    1
    10     6    12    1
    11    29    36    1
    12    29    37    1
    13     7     9    1
    14     7    13    1
    15     8    10    1
    16     8    14    1
    17     4     5    1
    18    28    36    1
    19    30    33    1
    20    30    38    1
    21    31    34    1
    22    31    39    1
    23    32    35    1
    24    32    40    1
    25    41    43   ar
    26    15    19    2
    27    42    43   ar
    28    16    22    2
    29    17    12    1
    30    17    19   ar
    31    17    20   ar
    32    18    19   ar
    33    18    22   ar
    34    18    23    1
    35     9    10    1
    36     9    11    1
    37    10    12    1
    38    11     5    1
    39    33    34    1
    40    33    35    1
    41    34    36    1
    42    35    37    1
    43    37    43    1
    44    20    21   ar
    45    21    22   ar
@<TRIPOS>MOLECULE
*****
 43 45 0 0 0
SMALL
GASTEIGER

@<TRIPOS>ATOM
      1 P          22.2038   73.1427   -5.0098 P.3     1  UNL1        0.2189
      2 O          22.5153   74.7292   -4.9404 O.co2   1  UNL1       -0.4371
      3 O          23.0837   72.3645   -5.9435 O.2     1  UNL1       -0.5170
      4 O          20.6168   73.0715   -5.3168 O.3     1  UNL1       -0.3112
      5 C          19.7370   73.8315   -4.5088 C.3     1  UNL1        0.1811
      6 O          18.1598   73.5091   -6.2937 O.3     1  UNL1       -0.3308
      7 O          16.9222   76.0961   -5.4177 O.3     1  UNL1       -0.3794
      8 O          15.2481   74.2372   -4.3325 O.3     1  UNL1       -0.3779
      9 C          17.5152   75.0650   -4.6280 C.3     1  UNL1        0.1713
     10 C          16.5930   73.8666   -4.5528 C.3     1  UNL1        0.1895
     11 C          18.7021   74.5056   -5.4003 C.3     1  UNL1        0.1764
     12 C          16.8063   73.2188   -5.9103 C.3     1  UNL1        0.2383
     13 H          16.1613   76.4689   -4.9448 H       1  UNL1        0.2105
     14 H          15.1644   74.6445   -3.4555 H       1  UNL1        0.2106
     15 O          15.8541   71.6730   -8.0737 O.2     1  UNL1       -0.2464
     16 O          16.1579   67.7635   -5.6514 O.2     1  UNL1       -0.2670
     17 N          16.6269   71.7950   -5.8722 N.ar    1  UNL1       -0.2551
     18 N          16.0054   69.7275   -6.8649 N.ar    1  UNL1       -0.2743
     19 C          16.1425   71.1138   -7.0139 C.ar    1  UNL1        0.3323
     20 C          16.9310   71.0883   -4.7151 C.ar    1  UNL1        0.0869
     21 C          16.7952   69.7668   -4.5881 C.ar    1  UNL1        0.0795
     22 C          16.2941   68.9804   -5.7343 C.ar    1  UNL1        0.2626
     23 H          15.6678   69.2318   -7.6457 H       1  UNL1        0.1734
     24 O          22.2952   72.6869   -3.4616 O.3     1  UNL1       -0.2703
     25 P          22.5225   71.2316   -2.7953 P.3     1  UNL1        0.2208
     26 O          24.1117   70.9846   -2.9796 O.co2   1  UNL1       -0.4371
     27 O          21.6574   70.1485   -3.3717 O.2     1  UNL1       -0.5170
     28 O          22.3288   71.4717   -1.2119 O.3     1  UNL1       -0.2858
     29 O          22.3086   73.5518   -0.0796 O.3     1  UNL1       -0.3226
     30 O          23.6504   70.9979    2.8776 O.3     1  UNL1       -0.3794
     31 O          24.6486   70.7514    0.1431 O.3     1  UNL1       -0.3775
     32 O          20.9119   71.9722    2.9231 O.3     1  UNL1       -0.3792
     33 C          22.9090   71.3718    1.7164 C.3     1  UNL1        0.1718
     34 C          23.8706   71.8413    0.6245 C.3     1  UNL1        0.1968
     35 C          21.9553   72.5027    2.1081 C.3     1  UNL1        0.1723
     36 C          23.1077   72.4638   -0.5457 C.3     1  UNL1        0.2706
     37 C          21.3300   73.1551    0.8785 C.3     1  UNL1        0.1830
     38 H          24.2635   70.2803    2.6529 H       1  UNL1        0.2105
     39 H          25.1351   70.3515    0.8805 H       1  UNL1        0.2106
     40 H          21.2965   71.5539    3.7092 H       1  UNL1        0.2106
     41 O          21.1080   74.8847    2.4472 O.co2   1  UNL1       -0.5466
     42 O          19.8541   75.0351    0.5487 O.co2   1  UNL1       -0.5466
     43 C          20.6718   74.4467    1.2402 C.2     1  UNL1        0.0799
@<TRIPOS>UNITY_ATOM_ATTR
2 1
charge -1
26 1
charge -1
41 1
charge -1
@<TRIPOS>BOND
     1     1     4    1
     2     1    24    1
     3     1     2    1
     4     1     3    2
     5    25    28    1
     6    25    24    1
     7    25    26    1
     8    25    27    2
     9     6    11    1
    10     6    12    1
    11    29    36    1
    12    29    37    1
    13     7     9    1
    14     7    13    1
    15     8    10    1
    16     8    14    1
    17     4     5    1
    18    28    36    1
    19    30    33    1
    20    30    38    1
    21    31    34    1
    22    31    39    1
    23    32    35    1
    24    32    40    1
    25    41    43   ar
    26    15    19    2
    27    42    43   ar
    28    16    22    2
    29    17    12    1
    30    17    19   ar
    31    17    20   ar
    32    18    19   ar
    33    18    22   ar
    34    18    23    1
    35     9    10    1
    36     9    11    1
    37    10    12    1
    38    11     5    1
    39    33    34    1
    40    33    35    1
    41    34    36    1
    42    35    37    1
    43    37    43    1
    44    20    21   ar
    45    21    22   ar
