@<TRIPOS>MOLECULE
UD1
 46 48 0 0 0
SMALL
GASTEIGER

@<TRIPOS>ATOM
      1 P          20.9187   70.8141   -3.4288 P.3     1  UNL1        0.2189
      2 O          21.7024   71.4270   -4.5238 O.2     1  UNL1       -0.5170
      3 O          20.4328   69.3449   -3.8738 O.3     1  UNL1       -0.4371
      4 O          19.6331   71.7303   -3.1118 O.3     1  UNL1       -0.3112
      5 C          18.6418   70.8711   -2.5466 C.3     1  UNL1        0.1811
      6 C          16.9961   70.5200   -5.7240 C.3     1  UNL1        0.2383
      7 C          16.9988   69.0899   -5.1281 C.3     1  UNL1        0.1895
      8 O          15.8580   68.3513   -5.5666 O.3     1  UNL1       -0.3779
      9 C          16.9238   69.3717   -3.6049 C.3     1  UNL1        0.1713
     10 C          17.4217   70.8234   -3.4678 C.3     1  UNL1        0.1764
     11 O          17.7836   71.2795   -4.7824 O.3     1  UNL1       -0.3308
     12 O          15.5777   69.2516   -3.1397 O.3     1  UNL1       -0.3794
     13 H          15.9197   67.4746   -5.1627 H       1  UNL1        0.2106
     14 H          15.3047   68.3397   -3.3071 H       1  UNL1        0.2105
     15 N          17.6205   70.5324   -7.0475 N.ar    1  UNL1       -0.2551
     16 C          16.8512   70.4623   -8.1478 C.ar    1  UNL1        0.3323
     17 N          17.3980   70.4758   -9.3778 N.ar    1  UNL1       -0.2743
     18 C          18.7361   70.5510   -9.5258 C.ar    1  UNL1        0.2626
     19 C          19.5581   70.6192   -8.3758 C.ar    1  UNL1        0.0795
     20 C          18.9830   70.6094   -7.1541 C.ar    1  UNL1        0.0869
     21 O          15.6428   70.3942   -8.0306 O.2     1  UNL1       -0.2464
     22 O          19.2318   70.5584  -10.6374 O.2     1  UNL1       -0.2670
     23 H          16.8277   70.4293  -10.1606 H       1  UNL1        0.1734
     24 O          21.8350   70.7011   -2.1110 O.3     1  UNL1       -0.2703
     25 P          23.0567   71.7303   -2.3047 P.3     1  UNL1        0.2208
     26 O          22.5826   72.9268   -3.0345 O.2     1  UNL1       -0.5170
     27 O          24.2303   71.0191   -3.1468 O.3     1  UNL1       -0.4371
     28 O          23.6231   72.1702   -0.8638 O.3     1  UNL1       -0.2865
     29 C          22.6310   71.8100    0.0991 C.3     1  UNL1        0.2611
     30 C          22.0977   73.0757    0.7725 C.3     1  UNL1        0.1582
     31 C          23.2609   73.8141    1.4444 C.3     1  UNL1        0.1625
     32 C          23.9891   72.8381    2.3745 C.3     1  UNL1        0.1686
     33 C          24.3825   71.5914    1.5793 C.3     1  UNL1        0.1760
     34 O          22.7555   74.9154    2.2014 O.3     1  UNL1       -0.3801
     35 O          25.1627   73.4625    2.8983 O.3     1  UNL1       -0.3794
     36 O          23.2106   70.9499    1.0777 O.3     1  UNL1       -0.3263
     37 H          23.5189   75.3505    2.6054 H       1  UNL1        0.2105
     38 H          25.5900   72.8147    3.4764 H       1  UNL1        0.2105
     39 C          20.1476   73.9192   -0.4190 C.2     1  UNL1        0.2231
     40 C          19.5138   74.8122   -1.4550 C.3     1  UNL1        0.0946
     41 N          21.4815   73.9434   -0.2334 N.am    1  UNL1       -0.2994
     42 O          19.4567   73.1783    0.2472 O.2     1  UNL1       -0.2751
     43 H          22.0346   74.5361   -0.7665 H       1  UNL1        0.1496
     44 C          25.1393   70.6239    2.4916 C.3     1  UNL1        0.1693
     45 O          26.5399   70.8985    2.4205 O.3     1  UNL1       -0.3794
     46 H          26.9788   70.2684    3.0079 H       1  UNL1        0.2105
@<TRIPOS>BOND
     1    29    30    1
     2    29    28    1
     3    29    36    1
     4    30    31    1
     5    30    41    1
     6    31    32    1
     7    31    34    1
     8    32    33    1
     9    32    35    1
    10    33    44    1
    11    33    36    1
    12    44    45    1
    13    39    40    1
    14    39    41   am
    15    39    42    2
    16    41    43    1
    17    28    25    1
    18    34    37    1
    19    35    38    1
    20    45    46    1
    21    15    16   ar
    22    15    20   ar
    23    15     6    1
    24    16    17   ar
    25    16    21    2
    26    17    18   ar
    27    17    23    1
    28    18    19   ar
    29    18    22    2
    30    19    20   ar
    31     6     7    1
    32     6    11    1
    33     7     8    1
    34     7     9    1
    35     8    13    1
    36     9    10    1
    37     9    12    1
    38    10    11    1
    39    10     5    1
    40    12    14    1
    41     5     4    1
    42     4     1    1
    43     1     2    2
    44     1     3    1
    45     1    24    1
    46    24    25    1
    47    25    26    2
    48    25    27    1
@<TRIPOS>MOLECULE
UD1
 46 48 0 0 0
SMALL
GASTEIGER

@<TRIPOS>ATOM
      1 P          20.9298   71.5693   -1.9821 P.3     1  UNL1        0.2189
      2 O          21.1861   72.9835   -2.3328 O.2     1  UNL1       -0.5170
      3 O          22.3237   70.7642   -1.9458 O.3     1  UNL1       -0.4371
      4 O          19.9594   70.9107   -3.0855 O.3     1  UNL1       -0.3112
      5 C          18.8018   70.4425   -2.3920 C.3     1  UNL1        0.1811
      6 C          17.1018   70.4782   -5.5599 C.3     1  UNL1        0.2383
      7 C          16.9689   69.0164   -5.0646 C.3     1  UNL1        0.1895
      8 O          15.7570   68.4254   -5.5351 O.3     1  UNL1       -0.3779
      9 C          16.9352   69.1962   -3.5245 C.3     1  UNL1        0.1713
     10 C          17.5750   70.5791   -3.2950 C.3     1  UNL1        0.1764
     11 O          17.9685   71.0891   -4.5805 O.3     1  UNL1       -0.3308
     12 O          15.5880   69.1757   -3.0477 O.3     1  UNL1       -0.3794
     13 H          15.7356   67.5207   -5.1939 H       1  UNL1        0.2106
     14 H          15.2250   68.3089   -3.2735 H       1  UNL1        0.2105
     15 N          17.7127   70.5228   -6.8889 N.ar    1  UNL1       -0.2551
     16 C          16.9334   70.4647   -7.9828 C.ar    1  UNL1        0.3323
     17 N          17.4677   70.5076   -9.2177 N.ar    1  UNL1       -0.2743
     18 C          18.8032   70.6009   -9.3773 C.ar    1  UNL1        0.2626
     19 C          19.6359   70.6569   -8.2343 C.ar    1  UNL1        0.0795
     20 C          19.0732   70.6174   -7.0074 C.ar    1  UNL1        0.0869
     21 O          15.7270   70.3805   -7.8552 O.2     1  UNL1       -0.2464
     22 O          19.2878   70.6349  -10.4933 O.2     1  UNL1       -0.2670
     23 H          16.8901   70.4693   -9.9956 H       1  UNL1        0.1734
     24 O          20.2274   71.4937   -0.5365 O.3     1  UNL1       -0.2703
     25 P          21.4103   71.4584    0.5538 P.3     1  UNL1        0.2208
     26 O          22.6027   72.1451    0.0102 O.2     1  UNL1       -0.5170
     27 O          21.7815   69.9293    0.8948 O.3     1  UNL1       -0.4371
     28 O          20.9272   72.2039    1.8960 O.3     1  UNL1       -0.2865
     29 C          21.6245   73.4496    1.9521 C.3     1  UNL1        0.2611
     30 C          22.5677   73.4467    3.1564 C.3     1  UNL1        0.1582
     31 C          21.7491   73.2267    4.4336 C.3     1  UNL1        0.1625
     32 C          20.6299   74.2721    4.4845 C.3     1  UNL1        0.1686
     33 C          19.8309   74.2106    3.1810 C.3     1  UNL1        0.1760
     34 O          22.5956   73.3707    5.5756 O.3     1  UNL1       -0.3801
     35 O          19.7670   73.9950    5.5892 O.3     1  UNL1       -0.3794
     36 O          20.6839   74.5139    2.0779 O.3     1  UNL1       -0.3263
     37 H          22.0413   73.2243    6.3545 H       1  UNL1        0.2105
     38 H          19.0781   74.6747    5.5834 H       1  UNL1        0.2105
     39 C          24.7917   72.6412    2.5741 C.2     1  UNL1        0.2231
     40 C          25.7990   71.5301    2.4224 C.3     1  UNL1        0.0946
     41 N          23.5467   72.3677    3.0093 N.am    1  UNL1       -0.2994
     42 O          25.1018   73.7818    2.3037 O.2     1  UNL1       -0.2751
     43 H          23.2982   71.4550    3.2255 H       1  UNL1        0.1496
     44 C          18.6901   75.2289    3.2350 C.3     1  UNL1        0.1693
     45 O          19.0965   76.3596    4.0086 O.3     1  UNL1       -0.3794
     46 H          18.3510   76.9750    4.0177 H       1  UNL1        0.2105
@<TRIPOS>BOND
     1    29    30    1
     2    29    28    1
     3    29    36    1
     4    30    31    1
     5    30    41    1
     6    31    32    1
     7    31    34    1
     8    32    33    1
     9    32    35    1
    10    33    44    1
    11    33    36    1
    12    44    45    1
    13    39    40    1
    14    39    41   am
    15    39    42    2
    16    41    43    1
    17    28    25    1
    18    34    37    1
    19    35    38    1
    20    45    46    1
    21    15    16   ar
    22    15    20   ar
    23    15     6    1
    24    16    17   ar
    25    16    21    2
    26    17    18   ar
    27    17    23    1
    28    18    19   ar
    29    18    22    2
    30    19    20   ar
    31     6     7    1
    32     6    11    1
    33     7     8    1
    34     7     9    1
    35     8    13    1
    36     9    10    1
    37     9    12    1
    38    10    11    1
    39    10     5    1
    40    12    14    1
    41     5     4    1
    42     4     1    1
    43     1     2    2
    44     1     3    1
    45     1    24    1
    46    24    25    1
    47    25    26    2
    48    25    27    1
@<TRIPOS>MOLECULE
UD1
 46 48 0 0 0
SMALL
GASTEIGER

@<TRIPOS>ATOM
      1 P          20.7714   71.2732   -1.0270 P.3     1  UNL1        0.2189
      2 O          21.0065   70.6344    0.2866 O.2     1  UNL1       -0.5170
      3 O          21.0929   72.8475   -0.9234 O.3     1  UNL1       -0.4371
      4 O          19.2329   71.0676   -1.4554 O.3     1  UNL1       -0.3112
      5 C          19.2333   70.2225   -2.6069 C.3     1  UNL1        0.1811
      6 C          17.3418   70.4427   -5.6566 C.3     1  UNL1        0.2383
      7 C          17.1138   68.9922   -5.1623 C.3     1  UNL1        0.1895
      8 O          15.8270   68.5143   -5.5561 O.3     1  UNL1       -0.3779
      9 C          17.1956   69.1563   -3.6224 C.3     1  UNL1        0.1713
     10 C          17.9674   70.4757   -3.4270 C.3     1  UNL1        0.1764
     11 O          18.3200   70.9645   -4.7324 O.3     1  UNL1       -0.3308
     12 O          15.8854   69.2474   -3.0586 O.3     1  UNL1       -0.3794
     13 H          15.7486   67.6109   -5.2196 H       1  UNL1        0.2106
     14 H          15.4342   68.4181   -3.2653 H       1  UNL1        0.2105
     15 N          17.8670   70.4494   -7.0225 N.ar    1  UNL1       -0.2551
     16 C          17.0165   70.4410   -8.0635 C.ar    1  UNL1        0.3323
     17 N          17.4714   70.4509   -9.3304 N.ar    1  UNL1       -0.2743
     18 C          18.7971   70.4601   -9.5763 C.ar    1  UNL1        0.2626
     19 C          19.7038   70.4630   -8.4896 C.ar    1  UNL1        0.0795
     20 C          19.2202   70.4583   -7.2289 C.ar    1  UNL1        0.0869
     21 O          15.8180   70.4328   -7.8580 O.2     1  UNL1       -0.2464
     22 O          19.2096   70.4642  -10.7214 O.2     1  UNL1       -0.2670
     23 H          16.8435   70.4495  -10.0693 H       1  UNL1        0.1734
     24 O          21.7300   70.6002   -2.1303 O.3     1  UNL1       -0.2703
     25 P          23.0394   71.5293   -2.2373 P.3     1  UNL1        0.2208
     26 O          24.1290   70.7724   -2.8920 O.2     1  UNL1       -0.5170
     27 O          23.5063   71.9721   -0.7614 O.3     1  UNL1       -0.4371
     28 O          22.6992   72.8403   -3.1068 O.3     1  UNL1       -0.2865
     29 C          23.8554   73.1258   -3.8959 C.3     1  UNL1        0.2611
     30 C          24.2307   74.5992   -3.7273 C.3     1  UNL1        0.1582
     31 C          23.0482   75.4709   -4.1648 C.3     1  UNL1        0.1625
     32 C          22.6354   75.0613   -5.5826 C.3     1  UNL1        0.1686
     33 C          22.3775   73.5533   -5.6104 C.3     1  UNL1        0.1760
     34 O          23.4370   76.8457   -4.1541 O.3     1  UNL1       -0.3801
     35 O          21.4446   75.7582   -5.9538 O.3     1  UNL1       -0.3794
     36 O          23.5726   72.8533   -5.2668 O.3     1  UNL1       -0.3263
     37 H          22.6652   77.3565   -4.4346 H       1  UNL1        0.2105
     38 H          21.2203   75.4709   -6.8502 H       1  UNL1        0.2105
     39 C          23.6023   75.3782   -1.5064 C.2     1  UNL1        0.2231
     40 C          23.9258   75.6543   -0.0602 C.3     1  UNL1        0.0946
     41 N          24.5443   74.8671   -2.3223 N.am    1  UNL1       -0.2994
     42 O          22.4938   75.6167   -1.9359 O.2     1  UNL1       -0.2751
     43 H          25.4316   74.6764   -1.9789 H       1  UNL1        0.1496
     44 C          21.9330   73.1391   -7.0147 C.3     1  UNL1        0.1693
     45 O          21.1018   74.1592   -7.5720 O.3     1  UNL1       -0.3794
     46 H          20.8441   73.8593   -8.4542 H       1  UNL1        0.2105
@<TRIPOS>BOND
     1    29    30    1
     2    29    28    1
     3    29    36    1
     4    30    31    1
     5    30    41    1
     6    31    32    1
     7    31    34    1
     8    32    33    1
     9    32    35    1
    10    33    44    1
    11    33    36    1
    12    44    45    1
    13    39    40    1
    14    39    41   am
    15    39    42    2
    16    41    43    1
    17    28    25    1
    18    34    37    1
    19    35    38    1
    20    45    46    1
    21    15    16   ar
    22    15    20   ar
    23    15     6    1
    24    16    17   ar
    25    16    21    2
    26    17    18   ar
    27    17    23    1
    28    18    19   ar
    29    18    22    2
    30    19    20   ar
    31     6     7    1
    32     6    11    1
    33     7     8    1
    34     7     9    1
    35     8    13    1
    36     9    10    1
    37     9    12    1
    38    10    11    1
    39    10     5    1
    40    12    14    1
    41     5     4    1
    42     4     1    1
    43     1     2    2
    44     1     3    1
    45     1    24    1
    46    24    25    1
    47    25    26    2
    48    25    27    1
@<TRIPOS>MOLECULE
UD1
 46 48 0 0 0
SMALL
GASTEIGER

@<TRIPOS>ATOM
      1 P          20.1241   71.0143   -2.6389 P.3     1  UNL1        0.2189
      2 O          20.6746   70.0919   -3.6562 O.2     1  UNL1       -0.5170
      3 O          19.4286   70.1628   -1.4626 O.3     1  UNL1       -0.4371
      4 O          19.0289   71.9757   -3.3237 O.3     1  UNL1       -0.3112
      5 C          17.7886   71.7291   -2.6594 C.3     1  UNL1        0.1811
      6 C          16.7161   70.5793   -5.8929 C.3     1  UNL1        0.2383
      7 C          17.0076   69.2826   -5.0968 C.3     1  UNL1        0.1895
      8 O          16.1613   68.2165   -5.5287 O.3     1  UNL1       -0.3779
      9 C          16.6651   69.7077   -3.6452 C.3     1  UNL1        0.1713
     10 C          16.7522   71.2459   -3.6751 C.3     1  UNL1        0.1764
     11 O          17.1531   71.6277   -5.0021 O.3     1  UNL1       -0.3308
     12 O          15.3461   69.2815   -3.2970 O.3     1  UNL1       -0.3794
     13 H          16.3924   67.4423   -4.9970 H       1  UNL1        0.2106
     14 H          15.3401   68.3167   -3.3545 H       1  UNL1        0.2105
     15 N          17.4833   70.6075   -7.1387 N.ar    1  UNL1       -0.2551
     16 C          16.8390   70.5874   -8.3185 C.ar    1  UNL1        0.3323
     17 N          17.5188   70.6165   -9.4801 N.ar    1  UNL1       -0.2743
     18 C          18.8665   70.6571   -9.4778 C.ar    1  UNL1        0.2626
     19 C          19.5576   70.6726   -8.2429 C.ar    1  UNL1        0.0795
     20 C          18.8508   70.6481   -7.0927 C.ar    1  UNL1        0.0869
     21 O          15.6237   70.5509   -8.3370 O.2     1  UNL1       -0.2464
     22 O          19.4823   70.6785  -10.5274 O.2     1  UNL1       -0.2670
     23 H          17.0377   70.6062  -10.3218 H       1  UNL1        0.1734
     24 O          21.3132   71.9077   -2.0250 O.3     1  UNL1       -0.2703
     25 P          21.1145   71.9122   -0.4282 P.3     1  UNL1        0.2208
     26 O          20.9262   70.5245    0.0492 O.2     1  UNL1       -0.5170
     27 O          19.8183   72.7894   -0.0504 O.3     1  UNL1       -0.4371
     28 O          22.4151   72.5493    0.2739 O.3     1  UNL1       -0.2865
     29 C          22.0189   73.8121    0.8120 C.3     1  UNL1        0.2611
     30 C          23.0797   74.8608    0.4728 C.3     1  UNL1        0.1582
     31 C          24.4254   74.4207    1.0599 C.3     1  UNL1        0.1625
     32 C          24.2398   74.1409    2.5551 C.3     1  UNL1        0.1686
     33 C          23.0934   73.1440    2.7370 C.3     1  UNL1        0.1760
     34 O          25.3893   75.4599    0.8799 O.3     1  UNL1       -0.3801
     35 O          25.4441   73.5895    3.0912 O.3     1  UNL1       -0.3794
     36 O          21.8832   73.7027    2.2272 O.3     1  UNL1       -0.3263
     37 H          26.2184   75.1412    1.2624 H       1  UNL1        0.2105
     38 H          25.2834   73.4282    4.0318 H       1  UNL1        0.2105
     39 C          22.8778   76.1475   -1.5858 C.2     1  UNL1        0.2231
     40 C          22.9979   76.2765   -3.0829 C.3     1  UNL1        0.0946
     41 N          23.1966   74.9868   -0.9815 N.am    1  UNL1       -0.2994
     42 O          22.4935   77.0888   -0.9251 O.2     1  UNL1       -0.2751
     43 H          23.5040   74.2333   -1.5100 H       1  UNL1        0.1496
     44 C          22.9210   72.8329    4.2252 C.3     1  UNL1        0.1693
     45 O          21.5290   72.7907    4.5453 O.3     1  UNL1       -0.3794
     46 H          21.4648   72.5928    5.4894 H       1  UNL1        0.2105
@<TRIPOS>BOND
     1    29    30    1
     2    29    28    1
     3    29    36    1
     4    30    31    1
     5    30    41    1
     6    31    32    1
     7    31    34    1
     8    32    33    1
     9    32    35    1
    10    33    44    1
    11    33    36    1
    12    44    45    1
    13    39    40    1
    14    39    41   am
    15    39    42    2
    16    41    43    1
    17    28    25    1
    18    34    37    1
    19    35    38    1
    20    45    46    1
    21    15    16   ar
    22    15    20   ar
    23    15     6    1
    24    16    17   ar
    25    16    21    2
    26    17    18   ar
    27    17    23    1
    28    18    19   ar
    29    18    22    2
    30    19    20   ar
    31     6     7    1
    32     6    11    1
    33     7     8    1
    34     7     9    1
    35     8    13    1
    36     9    10    1
    37     9    12    1
    38    10    11    1
    39    10     5    1
    40    12    14    1
    41     5     4    1
    42     4     1    1
    43     1     2    2
    44     1     3    1
    45     1    24    1
    46    24    25    1
    47    25    26    2
    48    25    27    1
@<TRIPOS>MOLECULE
UD1
 46 48 0 0 0
SMALL
GASTEIGER

@<TRIPOS>ATOM
      1 P          21.8695   71.3725   -0.5960 P.3     1  UNL1        0.2189
      2 O          21.1591   72.6694   -0.5512 O.2     1  UNL1       -0.5170
      3 O          21.1995   70.3568    0.4585 O.3     1  UNL1       -0.4371
      4 O          23.4179   71.5959   -0.2148 O.3     1  UNL1       -0.3112
      5 C          23.5922   71.1028    1.1145 C.3     1  UNL1        0.1811
      6 C          25.6741   73.2239    3.1378 C.3     1  UNL1        0.2383
      7 C          25.6113   73.9378    1.7642 C.3     1  UNL1        0.1895
      8 O          25.7138   75.3537    1.9190 O.3     1  UNL1       -0.3779
      9 C          24.2028   73.5375    1.2534 C.3     1  UNL1        0.1713
     10 C          23.8562   72.2731    2.0631 C.3     1  UNL1        0.1764
     11 O          24.9857   71.9773    2.9021 O.3     1  UNL1       -0.3308
     12 O          23.2609   74.5804    1.5143 O.3     1  UNL1       -0.3794
     13 H          25.6687   75.7365    1.0319 H       1  UNL1        0.2106
     14 H          23.5646   75.3589    1.0288 H       1  UNL1        0.2105
     15 N          27.0618   72.9804    3.5336 N.ar    1  UNL1       -0.2551
     16 C          27.6951   71.8775    3.0980 C.ar    1  UNL1        0.3323
     17 N          28.9726   71.6300    3.4429 N.ar    1  UNL1       -0.2743
     18 C          29.6382   72.4862    4.2440 C.ar    1  UNL1        0.2626
     19 C          28.9816   73.6482    4.7146 C.ar    1  UNL1        0.0795
     20 C          27.7016   73.8747    4.3489 C.ar    1  UNL1        0.0869
     21 O          27.1082   71.0958    2.3747 O.2     1  UNL1       -0.2464
     22 O          30.7917   72.2610    4.5604 O.2     1  UNL1       -0.2670
     23 H          29.4155   70.8319    3.1156 H       1  UNL1        0.1734
     24 O          21.7657   70.7546   -2.0780 O.3     1  UNL1       -0.2703
     25 P          22.8459   71.5320   -2.9825 P.3     1  UNL1        0.2208
     26 O          24.1413   70.8196   -2.9251 O.2     1  UNL1       -0.5170
     27 O          23.0336   73.0311   -2.4259 O.3     1  UNL1       -0.4371
     28 O          22.3312   71.5875   -4.5065 O.3     1  UNL1       -0.2865
     29 C          21.1379   72.3732   -4.5126 C.3     1  UNL1        0.2611
     30 C          20.0105   71.5743   -5.1688 C.3     1  UNL1        0.1582
     31 C          20.4234   71.2062   -6.5984 C.3     1  UNL1        0.1625
     32 C          20.8303   72.4863   -7.3360 C.3     1  UNL1        0.1686
     33 C          21.8983   73.2149   -6.5175 C.3     1  UNL1        0.1760
     34 O          19.3232   70.5911   -7.2712 O.3     1  UNL1       -0.3801
     35 O          21.3574   72.1504   -8.6209 O.3     1  UNL1       -0.3794
     36 O          21.3663   73.5761   -5.2435 O.3     1  UNL1       -0.3263
     37 H          19.6265   70.3764   -8.1641 H       1  UNL1        0.2105
     38 H          21.6011   72.9831   -9.0496 H       1  UNL1        0.2105
     39 C          18.5013   69.9362   -4.1824 C.2     1  UNL1        0.2231
     40 C          18.2476   68.6791   -3.3901 C.3     1  UNL1        0.0946
     41 N          19.7636   70.3529   -4.3997 N.am    1  UNL1       -0.2994
     42 O          17.5688   70.5731   -4.6238 O.2     1  UNL1       -0.2751
     43 H          20.5100   69.8434   -4.0463 H       1  UNL1        0.1496
     44 C          22.3352   74.4785   -7.2615 C.3     1  UNL1        0.1693
     45 O          23.5896   74.9268   -6.7440 O.3     1  UNL1       -0.3794
     46 H          23.8279   75.7227   -7.2383 H       1  UNL1        0.2105
@<TRIPOS>BOND
     1    29    30    1
     2    29    28    1
     3    29    36    1
     4    30    31    1
     5    30    41    1
     6    31    32    1
     7    31    34    1
     8    32    33    1
     9    32    35    1
    10    33    44    1
    11    33    36    1
    12    44    45    1
    13    39    40    1
    14    39    41   am
    15    39    42    2
    16    41    43    1
    17    28    25    1
    18    34    37    1
    19    35    38    1
    20    45    46    1
    21    15    16   ar
    22    15    20   ar
    23    15     6    1
    24    16    17   ar
    25    16    21    2
    26    17    18   ar
    27    17    23    1
    28    18    19   ar
    29    18    22    2
    30    19    20   ar
    31     6     7    1
    32     6    11    1
    33     7     8    1
    34     7     9    1
    35     8    13    1
    36     9    10    1
    37     9    12    1
    38    10    11    1
    39    10     5    1
    40    12    14    1
    41     5     4    1
    42     4     1    1
    43     1     2    2
    44     1     3    1
    45     1    24    1
    46    24    25    1
    47    25    26    2
    48    25    27    1
@<TRIPOS>MOLECULE
UD1
 46 48 0 0 0
SMALL
GASTEIGER

@<TRIPOS>ATOM
      1 P          16.3571   69.8015   -2.6315 P.3     1  UNL1        0.2189
      2 O          16.1426   69.6381   -4.0861 O.2     1  UNL1       -0.5170
      3 O          16.9531   68.4363   -2.0202 O.3     1  UNL1       -0.4371
      4 O          14.9542   70.1404   -1.9174 O.3     1  UNL1       -0.3112
      5 C          14.8221   69.2402   -0.8163 C.3     1  UNL1        0.1811
      6 C          12.0750   68.0280    1.1614 C.3     1  UNL1        0.2383
      7 C          12.3335   69.4601    1.6927 C.3     1  UNL1        0.1895
      8 O          11.1246   70.0566    2.1638 O.3     1  UNL1       -0.3779
      9 C          12.8529   70.1886    0.4259 C.3     1  UNL1        0.1713
     10 C          13.3406   69.0480   -0.4883 C.3     1  UNL1        0.1764
     11 O          13.1541   67.8147    0.2268 O.3     1  UNL1       -0.3308
     12 O          11.7966   70.9217   -0.1982 O.3     1  UNL1       -0.3794
     13 H          11.3534   70.9417    2.4796 H       1  UNL1        0.2106
     14 H          11.4952   71.5783    0.4438 H       1  UNL1        0.2105
     15 N          12.1343   67.0516    2.2498 N.ar    1  UNL1       -0.2551
     16 C          13.3276   66.6187    2.6923 C.ar    1  UNL1        0.3323
     17 N          13.4123   65.7240    3.6945 N.ar    1  UNL1       -0.2743
     18 C          12.2929   65.2380    4.2679 C.ar    1  UNL1        0.2626
     19 C          11.0299   65.6807    3.8079 C.ar    1  UNL1        0.0795
     20 C          10.9740   66.5828    2.8046 C.ar    1  UNL1        0.0869
     21 O          14.3462   67.0477    2.1853 O.2     1  UNL1       -0.2464
     22 O          12.3682   64.4254    5.1710 O.2     1  UNL1       -0.2670
     23 H          14.2816   65.4263    4.0043 H       1  UNL1        0.1734
     24 O          17.3945   71.0040   -2.3736 O.3     1  UNL1       -0.2703
     25 P          18.8590   70.4381   -2.7261 P.3     1  UNL1        0.2208
     26 O          18.7443   69.0506   -3.2268 O.2     1  UNL1       -0.5170
     27 O          19.7750   70.4560   -1.4021 O.3     1  UNL1       -0.4371
     28 O          19.5351   71.3624   -3.8570 O.3     1  UNL1       -0.2865
     29 C          20.5944   70.5993   -4.4374 C.3     1  UNL1        0.2611
     30 C          21.9174   71.3420   -4.2425 C.3     1  UNL1        0.1582
     31 C          21.8196   72.7218   -4.9030 C.3     1  UNL1        0.1625
     32 C          21.3838   72.5377   -6.3605 C.3     1  UNL1        0.1686
     33 C          20.0991   71.7072   -6.3954 C.3     1  UNL1        0.1760
     34 O          23.0945   73.3653   -4.8587 O.3     1  UNL1       -0.3801
     35 O          21.1446   73.8157   -6.9529 O.3     1  UNL1       -0.3794
     36 O          20.3417   70.4199   -5.8293 O.3     1  UNL1       -0.3263
     37 H          22.9872   74.2275   -5.2834 H       1  UNL1        0.2105
     38 H          20.8724   73.6536   -7.8673 H       1  UNL1        0.2105
     39 C          23.4103   71.2392   -2.3203 C.2     1  UNL1        0.2231
     40 C          23.6839   71.4026   -0.8470 C.3     1  UNL1        0.0946
     41 N          22.1837   71.5010   -2.8114 N.am    1  UNL1       -0.2994
     42 O          24.2945   70.8713   -3.0640 O.2     1  UNL1       -0.2751
     43 H          21.4759   71.7952   -2.2164 H       1  UNL1        0.1496
     44 C          19.6374   71.5449   -7.8451 C.3     1  UNL1        0.1693
     45 O          20.7404   71.7714   -8.7249 O.3     1  UNL1       -0.3794
     46 H          20.4074   71.6601   -9.6257 H       1  UNL1        0.2105
@<TRIPOS>BOND
     1    29    30    1
     2    29    28    1
     3    29    36    1
     4    30    31    1
     5    30    41    1
     6    31    32    1
     7    31    34    1
     8    32    33    1
     9    32    35    1
    10    33    44    1
    11    33    36    1
    12    44    45    1
    13    39    40    1
    14    39    41   am
    15    39    42    2
    16    41    43    1
    17    28    25    1
    18    34    37    1
    19    35    38    1
    20    45    46    1
    21    15    16   ar
    22    15    20   ar
    23    15     6    1
    24    16    17   ar
    25    16    21    2
    26    17    18   ar
    27    17    23    1
    28    18    19   ar
    29    18    22    2
    30    19    20   ar
    31     6     7    1
    32     6    11    1
    33     7     8    1
    34     7     9    1
    35     8    13    1
    36     9    10    1
    37     9    12    1
    38    10    11    1
    39    10     5    1
    40    12    14    1
    41     5     4    1
    42     4     1    1
    43     1     2    2
    44     1     3    1
    45     1    24    1
    46    24    25    1
    47    25    26    2
    48    25    27    1
@<TRIPOS>MOLECULE
UD1
 46 48 0 0 0
SMALL
GASTEIGER

@<TRIPOS>ATOM
      1 P          21.7892   72.5988   -6.0439 P.3     1  UNL1        0.2189
      2 O          23.0307   72.5961   -6.8484 O.2     1  UNL1       -0.5170
      3 O          21.7878   71.3283   -5.0547 O.3     1  UNL1       -0.4371
      4 O          20.5147   72.5154   -7.0246 O.3     1  UNL1       -0.3112
      5 C          20.7921   71.4879   -7.9772 C.3     1  UNL1        0.1811
      6 C          17.6505   70.1358   -6.8686 C.3     1  UNL1        0.2383
      7 C          17.2658   71.1698   -7.9563 C.3     1  UNL1        0.1895
      8 O          16.0716   70.7783   -8.6342 O.3     1  UNL1       -0.3779
      9 C          18.4880   71.1100   -8.9091 C.3     1  UNL1        0.1713
     10 C          19.6125   70.5163   -8.0388 C.3     1  UNL1        0.1764
     11 O          19.0750   70.3157   -6.7205 O.3     1  UNL1       -0.3308
     12 O          18.2106   70.2626  -10.0261 O.3     1  UNL1       -0.3794
     13 H          15.8876   71.4608   -9.2945 H       1  UNL1        0.2106
     14 H          17.4621   70.6548  -10.4951 H       1  UNL1        0.2105
     15 N          16.9603   70.4239   -5.6108 N.ar    1  UNL1       -0.2551
     16 C          16.4239   69.4171   -4.8994 C.ar    1  UNL1        0.3323
     17 N          15.7868   69.6523   -3.7371 N.ar    1  UNL1       -0.2743
     18 C          15.6681   70.9116   -3.2700 C.ar    1  UNL1        0.2626
     19 C          16.2230   71.9814   -4.0118 C.ar    1  UNL1        0.0795
     20 C          16.8614   71.7167   -5.1719 C.ar    1  UNL1        0.0869
     21 O          16.5227   68.2759   -5.3075 O.2     1  UNL1       -0.2464
     22 O          15.0882   71.1259   -2.2216 O.2     1  UNL1       -0.2670
     23 H          15.4100   68.9136   -3.2345 H       1  UNL1        0.1734
     24 O          21.7129   73.9535   -5.1792 O.3     1  UNL1       -0.2703
     25 P          22.8256   73.8305   -4.0233 P.3     1  UNL1        0.2208
     26 O          23.4924   75.1383   -3.8395 O.2     1  UNL1       -0.5170
     27 O          23.9186   72.7261   -4.4450 O.3     1  UNL1       -0.4371
     28 O          22.1224   73.3883   -2.6447 O.3     1  UNL1       -0.2865
     29 C          23.0733   72.5976   -1.9294 C.3     1  UNL1        0.2611
     30 C          22.3323   71.5779   -1.0627 C.3     1  UNL1        0.1582
     31 C          21.4083   72.3222   -0.0923 C.3     1  UNL1        0.1625
     32 C          22.2373   73.3541    0.6798 C.3     1  UNL1        0.1686
     33 C          22.9832   74.2419   -0.3186 C.3     1  UNL1        0.1760
     34 O          20.8241   71.3920    0.8214 O.3     1  UNL1       -0.3801
     35 O          21.3716   74.1585    1.4829 O.3     1  UNL1       -0.3794
     36 O          23.8693   73.4452   -1.1039 O.3     1  UNL1       -0.3263
     37 H          20.2519   71.9016    1.4114 H       1  UNL1        0.2105
     38 H          21.9330   74.7934    1.9500 H       1  UNL1        0.2105
     39 C          20.2286   70.9470   -2.1166 C.2     1  UNL1        0.2231
     40 C          19.4099   70.0371   -2.9964 C.3     1  UNL1        0.0946
     41 N          21.5366   70.6945   -1.9176 N.am    1  UNL1       -0.2994
     42 O          19.7096   71.9064   -1.5871 O.2     1  UNL1       -0.2751
     43 H          21.9522   69.9267   -2.3411 H       1  UNL1        0.1496
     44 C          23.7891   75.2970    0.4420 C.3     1  UNL1        0.1693
     45 O          25.0875   75.4180   -0.1425 O.3     1  UNL1       -0.3794
     46 H          25.5613   76.0907    0.3652 H       1  UNL1        0.2105
@<TRIPOS>BOND
     1    29    30    1
     2    29    28    1
     3    29    36    1
     4    30    31    1
     5    30    41    1
     6    31    32    1
     7    31    34    1
     8    32    33    1
     9    32    35    1
    10    33    44    1
    11    33    36    1
    12    44    45    1
    13    39    40    1
    14    39    41   am
    15    39    42    2
    16    41    43    1
    17    28    25    1
    18    34    37    1
    19    35    38    1
    20    45    46    1
    21    15    16   ar
    22    15    20   ar
    23    15     6    1
    24    16    17   ar
    25    16    21    2
    26    17    18   ar
    27    17    23    1
    28    18    19   ar
    29    18    22    2
    30    19    20   ar
    31     6     7    1
    32     6    11    1
    33     7     8    1
    34     7     9    1
    35     8    13    1
    36     9    10    1
    37     9    12    1
    38    10    11    1
    39    10     5    1
    40    12    14    1
    41     5     4    1
    42     4     1    1
    43     1     2    2
    44     1     3    1
    45     1    24    1
    46    24    25    1
    47    25    26    2
    48    25    27    1
@<TRIPOS>MOLECULE
UD1
 46 48 0 0 0
SMALL
GASTEIGER

@<TRIPOS>ATOM
      1 P          20.4329   71.3088   -0.6908 P.3     1  UNL1        0.2189
      2 O          20.0697   72.6332   -0.1405 O.2     1  UNL1       -0.5170
      3 O          21.4790   71.4985   -1.9000 O.3     1  UNL1       -0.4371
      4 O          19.1087   70.5743   -1.2384 O.3     1  UNL1       -0.3112
      5 C          19.3463   70.2627   -2.6120 C.3     1  UNL1        0.1811
      6 C          17.4195   70.4544   -5.6416 C.3     1  UNL1        0.2383
      7 C          17.1969   69.0088   -5.1308 C.3     1  UNL1        0.1895
      8 O          15.9055   68.5276   -5.5050 O.3     1  UNL1       -0.3779
      9 C          17.2966   69.1877   -3.5935 C.3     1  UNL1        0.1713
     10 C          18.0709   70.5086   -3.4198 C.3     1  UNL1        0.1764
     11 O          18.4086   70.9847   -4.7338 O.3     1  UNL1       -0.3308
     12 O          15.9931   69.2846   -3.0154 O.3     1  UNL1       -0.3794
     13 H          15.8308   67.6275   -5.1590 H       1  UNL1        0.2106
     14 H          15.5393   68.4536   -3.2090 H       1  UNL1        0.2105
     15 N          17.9289   70.4478   -7.0134 N.ar    1  UNL1       -0.2551
     16 C          17.0668   70.4033   -8.0441 C.ar    1  UNL1        0.3323
     17 N          17.5070   70.4002   -9.3162 N.ar    1  UNL1       -0.2743
     18 C          18.8293   70.4326   -9.5778 C.ar    1  UNL1        0.2626
     19 C          19.7481   70.4737   -8.5021 C.ar    1  UNL1        0.0795
     20 C          19.2792   70.4813   -7.2359 C.ar    1  UNL1        0.0869
     21 O          15.8713   70.3737   -7.8243 O.2     1  UNL1       -0.2464
     22 O          19.2286   70.4250  -10.7276 O.2     1  UNL1       -0.2670
     23 H          16.8709   70.3726  -10.0475 H       1  UNL1        0.1734
     24 O          21.1040   70.4130    0.4651 O.3     1  UNL1       -0.2703
     25 P          22.3021   71.2850    1.0924 P.3     1  UNL1        0.2208
     26 O          22.7356   72.3047    0.1119 O.2     1  UNL1       -0.5170
     27 O          23.5415   70.3199    1.4453 O.3     1  UNL1       -0.4371
     28 O          21.7920   72.0134    2.4339 O.3     1  UNL1       -0.2865
     29 C          22.1357   73.3947    2.3119 C.3     1  UNL1        0.2611
     30 C          23.2245   73.7362    3.3307 C.3     1  UNL1        0.1582
     31 C          22.7059   73.4301    4.7402 C.3     1  UNL1        0.1625
     32 C          21.3732   74.1592    4.9412 C.3     1  UNL1        0.1686
     33 C          20.4228   73.7834    3.8024 C.3     1  UNL1        0.1760
     34 O          23.6541   73.8831    5.7083 O.3     1  UNL1       -0.3801
     35 O          20.8001   73.7716    6.1914 O.3     1  UNL1       -0.3794
     36 O          20.9798   74.1939    2.5543 O.3     1  UNL1       -0.3263
     37 H          23.2885   73.6708    6.5781 H       1  UNL1        0.2105
     38 H          19.9644   74.2521    6.2770 H       1  UNL1        0.2105
     39 C          25.6430   73.4676    3.2161 C.2     1  UNL1        0.2231
     40 C          26.8707   72.6383    2.9381 C.3     1  UNL1        0.0946
     41 N          24.4174   72.9307    3.0612 N.am    1  UNL1       -0.2994
     42 O          25.7584   74.6189    3.5786 O.2     1  UNL1       -0.2751
     43 H          24.3248   72.0095    2.7709 H       1  UNL1        0.1496
     44 C          19.0773   74.4813    4.0114 C.3     1  UNL1        0.1693
     45 O          18.2568   73.6872    4.8707 O.3     1  UNL1       -0.3794
     46 H          17.4208   74.1613    4.9758 H       1  UNL1        0.2105
@<TRIPOS>BOND
     1    29    30    1
     2    29    28    1
     3    29    36    1
     4    30    31    1
     5    30    41    1
     6    31    32    1
     7    31    34    1
     8    32    33    1
     9    32    35    1
    10    33    44    1
    11    33    36    1
    12    44    45    1
    13    39    40    1
    14    39    41   am
    15    39    42    2
    16    41    43    1
    17    28    25    1
    18    34    37    1
    19    35    38    1
    20    45    46    1
    21    15    16   ar
    22    15    20   ar
    23    15     6    1
    24    16    17   ar
    25    16    21    2
    26    17    18   ar
    27    17    23    1
    28    18    19   ar
    29    18    22    2
    30    19    20   ar
    31     6     7    1
    32     6    11    1
    33     7     8    1
    34     7     9    1
    35     8    13    1
    36     9    10    1
    37     9    12    1
    38    10    11    1
    39    10     5    1
    40    12    14    1
    41     5     4    1
    42     4     1    1
    43     1     2    2
    44     1     3    1
    45     1    24    1
    46    24    25    1
    47    25    26    2
    48    25    27    1
@<TRIPOS>MOLECULE
UD1
 46 48 0 0 0
SMALL
GASTEIGER

@<TRIPOS>ATOM
      1 P          19.6784   72.6415   -2.0459 P.3     1  UNL1        0.2189
      2 O          19.1923   72.2560   -0.7027 O.2     1  UNL1       -0.5170
      3 O          18.7912   73.8620   -2.6078 O.3     1  UNL1       -0.4371
      4 O          19.5518   71.3836   -3.0432 O.3     1  UNL1       -0.3112
      5 C          18.4799   70.5751   -2.5556 C.3     1  UNL1        0.1811
      6 C          16.9475   70.4656   -5.8063 C.3     1  UNL1        0.2383
      7 C          16.8201   69.0184   -5.2682 C.3     1  UNL1        0.1895
      8 O          15.6475   68.3841   -5.7799 O.3     1  UNL1       -0.3779
      9 C          16.7022   69.2487   -3.7391 C.3     1  UNL1        0.1713
     10 C          17.2993   70.6530   -3.5248 C.3     1  UNL1        0.1764
     11 O          17.7484   71.1288   -4.8052 O.3     1  UNL1       -0.3308
     12 O          15.3327   69.2129   -3.3318 O.3     1  UNL1       -0.3794
     13 H          15.6276   67.4910   -5.4092 H       1  UNL1        0.2106
     14 H          15.0006   68.3309   -3.5460 H       1  UNL1        0.2105
     15 N          17.6259   70.4799   -7.1028 N.ar    1  UNL1       -0.2551
     16 C          16.9004   70.5137   -8.2341 C.ar    1  UNL1        0.3323
     17 N          17.4978   70.5315   -9.4404 N.ar    1  UNL1       -0.2743
     18 C          18.8427   70.5063   -9.5330 C.ar    1  UNL1        0.2626
     19 C          19.6185   70.4646   -8.3501 C.ar    1  UNL1        0.0795
     20 C          18.9936   70.4529   -7.1531 C.ar    1  UNL1        0.0869
     21 O          15.6865   70.5369   -8.1669 O.2     1  UNL1       -0.2464
     22 O          19.3838   70.5175  -10.6232 O.2     1  UNL1       -0.2670
     23 H          16.9590   70.5608  -10.2460 H       1  UNL1        0.1734
     24 O          21.2186   73.0965   -1.9491 O.3     1  UNL1       -0.2703
     25 P          21.9663   72.0125   -1.0243 P.3     1  UNL1        0.2208
     26 O          23.2288   71.5968   -1.6741 O.2     1  UNL1       -0.5170
     27 O          21.0165   70.7274   -0.8276 O.3     1  UNL1       -0.4371
     28 O          22.2909   72.6629    0.4117 O.3     1  UNL1       -0.2865
     29 C          21.9038   71.7044    1.3979 C.3     1  UNL1        0.2611
     30 C          21.2650   72.4296    2.5837 C.3     1  UNL1        0.1582
     31 C          22.2745   73.4262    3.1646 C.3     1  UNL1        0.1625
     32 C          23.5745   72.6791    3.4807 C.3     1  UNL1        0.1686
     33 C          24.0407   71.9375    2.2261 C.3     1  UNL1        0.1760
     34 O          21.7456   74.0010    4.3610 O.3     1  UNL1       -0.3801
     35 O          24.5766   73.6138    3.8852 O.3     1  UNL1       -0.3794
     36 O          23.0539   70.9836    1.8352 O.3     1  UNL1       -0.3263
     37 H          22.4111   74.6201    4.6914 H       1  UNL1        0.2105
     38 H          25.3764   73.1025    4.0733 H       1  UNL1        0.2105
     39 C          20.1477   74.4548    1.8192 C.2     1  UNL1        0.2231
     40 C          18.9178   75.1932    1.3562 C.3     1  UNL1        0.0946
     41 N          20.0707   73.1473    2.1334 N.am    1  UNL1       -0.2994
     42 O          21.2069   75.0380    1.9097 O.2     1  UNL1       -0.2751
     43 H          19.2231   72.6804    2.0613 H       1  UNL1        0.1496
     44 C          25.3561   71.2141    2.5221 C.3     1  UNL1        0.1693
     45 O          25.0984   69.8251    2.7375 O.3     1  UNL1       -0.3794
     46 H          25.9509   69.4075    2.9204 H       1  UNL1        0.2105
@<TRIPOS>BOND
     1    29    30    1
     2    29    28    1
     3    29    36    1
     4    30    31    1
     5    30    41    1
     6    31    32    1
     7    31    34    1
     8    32    33    1
     9    32    35    1
    10    33    44    1
    11    33    36    1
    12    44    45    1
    13    39    40    1
    14    39    41   am
    15    39    42    2
    16    41    43    1
    17    28    25    1
    18    34    37    1
    19    35    38    1
    20    45    46    1
    21    15    16   ar
    22    15    20   ar
    23    15     6    1
    24    16    17   ar
    25    16    21    2
    26    17    18   ar
    27    17    23    1
    28    18    19   ar
    29    18    22    2
    30    19    20   ar
    31     6     7    1
    32     6    11    1
    33     7     8    1
    34     7     9    1
    35     8    13    1
    36     9    10    1
    37     9    12    1
    38    10    11    1
    39    10     5    1
    40    12    14    1
    41     5     4    1
    42     4     1    1
    43     1     2    2
    44     1     3    1
    45     1    24    1
    46    24    25    1
    47    25    26    2
    48    25    27    1
@<TRIPOS>MOLECULE
UD1
 46 48 0 0 0
SMALL
GASTEIGER

@<TRIPOS>ATOM
      1 P          21.3703   72.0977   -2.0851 P.3     1  UNL1        0.2189
      2 O          21.9566   70.7508   -2.2609 O.2     1  UNL1       -0.5170
      3 O          21.1371   72.3811   -0.5173 O.3     1  UNL1       -0.4371
      4 O          19.9602   72.1737   -2.8587 O.3     1  UNL1       -0.3112
      5 C          19.2834   70.9411   -2.6077 C.3     1  UNL1        0.1811
      6 C          17.4190   70.5353   -5.6551 C.3     1  UNL1        0.2383
      7 C          17.4551   69.1180   -5.0305 C.3     1  UNL1        0.1895
      8 O          16.2824   68.3785   -5.3729 O.3     1  UNL1       -0.3779
      9 C          17.4876   69.4321   -3.5121 C.3     1  UNL1        0.1713
     10 C          18.0021   70.8828   -3.4408 C.3     1  UNL1        0.1764
     11 O          18.2742   71.3088   -4.7868 O.3     1  UNL1       -0.3308
     12 O          16.1765   69.3313   -2.9521 O.3     1  UNL1       -0.3794
     13 H          16.3671   67.5101   -4.9557 H       1  UNL1        0.2106
     14 H          15.8874   68.4180   -3.0807 H       1  UNL1        0.2105
     15 N          17.9499   70.5157   -7.0186 N.ar    1  UNL1       -0.2551
     16 C          17.1095   70.3789   -8.0590 C.ar    1  UNL1        0.3323
     17 N          17.5695   70.3615   -9.3240 N.ar    1  UNL1       -0.2743
     18 C          18.8909   70.4726   -9.5681 C.ar    1  UNL1        0.2626
     19 C          19.7874   70.6112   -8.4819 C.ar    1  UNL1        0.0795
     20 C          19.2985   70.6310   -7.2233 C.ar    1  UNL1        0.0869
     21 O          15.9150   70.2776   -7.8550 O.2     1  UNL1       -0.2464
     22 O          19.3084   70.4522  -10.7112 O.2     1  UNL1       -0.2670
     23 H          16.9486   70.2668  -10.0627 H       1  UNL1        0.1734
     24 O          22.3730   73.2024   -2.6877 O.3     1  UNL1       -0.2703
     25 P          22.6776   72.7734   -4.2084 P.3     1  UNL1        0.2208
     26 O          21.9612   71.5169   -4.5193 O.2     1  UNL1       -0.5170
     27 O          24.2607   72.5484   -4.3964 O.3     1  UNL1       -0.4371
     28 O          22.1801   73.9353   -5.2050 O.3     1  UNL1       -0.2865
     29 C          23.0223   75.0664   -4.9761 C.3     1  UNL1        0.2611
     30 C          22.1611   76.2632   -4.5688 C.3     1  UNL1        0.1582
     31 C          21.1517   76.5571   -5.6843 C.3     1  UNL1        0.1625
     32 C          21.9133   76.7208   -7.0038 C.3     1  UNL1        0.1686
     33 C          22.7911   75.4879   -7.2289 C.3     1  UNL1        0.1760
     34 O          20.4431   77.7608   -5.3840 O.3     1  UNL1       -0.3801
     35 O          20.9824   76.8495   -8.0802 O.3     1  UNL1       -0.3794
     36 O          23.7403   75.3719   -6.1696 O.3     1  UNL1       -0.3263
     37 H          19.8205   77.9070   -6.1095 H       1  UNL1        0.2105
     38 H          21.5030   76.9493   -8.8898 H       1  UNL1        0.2105
     39 C          21.7637   76.5942   -2.1883 C.2     1  UNL1        0.2231
     40 C          21.0275   76.2740   -0.9125 C.3     1  UNL1        0.0946
     41 N          21.4458   75.9528   -3.3292 N.am    1  UNL1       -0.2994
     42 O          22.6430   77.4291   -2.1877 O.2     1  UNL1       -0.2751
     43 H          20.7423   75.2845   -3.3300 H       1  UNL1        0.1496
     44 C          23.5317   75.6269   -8.5606 C.3     1  UNL1        0.1693
     45 O          24.8976   75.2439   -8.3888 O.3     1  UNL1       -0.3794
     46 H          25.3272   75.3461   -9.2488 H       1  UNL1        0.2105
@<TRIPOS>BOND
     1    29    30    1
     2    29    28    1
     3    29    36    1
     4    30    31    1
     5    30    41    1
     6    31    32    1
     7    31    34    1
     8    32    33    1
     9    32    35    1
    10    33    44    1
    11    33    36    1
    12    44    45    1
    13    39    40    1
    14    39    41   am
    15    39    42    2
    16    41    43    1
    17    28    25    1
    18    34    37    1
    19    35    38    1
    20    45    46    1
    21    15    16   ar
    22    15    20   ar
    23    15     6    1
    24    16    17   ar
    25    16    21    2
    26    17    18   ar
    27    17    23    1
    28    18    19   ar
    29    18    22    2
    30    19    20   ar
    31     6     7    1
    32     6    11    1
    33     7     8    1
    34     7     9    1
    35     8    13    1
    36     9    10    1
    37     9    12    1
    38    10    11    1
    39    10     5    1
    40    12    14    1
    41     5     4    1
    42     4     1    1
    43     1     2    2
    44     1     3    1
    45     1    24    1
    46    24    25    1
    47    25    26    2
    48    25    27    1
@<TRIPOS>MOLECULE
UD1
 46 48 0 0 0
SMALL
GASTEIGER

@<TRIPOS>ATOM
      1 P          22.8251   73.3042   -4.6129 P.3     1  UNL1        0.2189
      2 O          24.0039   72.4193   -4.4860 O.2     1  UNL1       -0.5170
      3 O          23.0894   74.3870   -5.7749 O.3     1  UNL1       -0.4371
      4 O          22.5744   74.0668   -3.2170 O.3     1  UNL1       -0.3112
      5 C          21.4722   73.4167   -2.5823 C.3     1  UNL1        0.1811
      6 C          23.2135   71.5129   -0.0781 C.3     1  UNL1        0.2383
      7 C          21.7626   71.6196    0.4546 C.3     1  UNL1        0.1895
      8 O          21.4177   70.4723    1.2317 O.3     1  UNL1       -0.3779
      9 C          20.9368   71.6680   -0.8573 C.3     1  UNL1        0.1713
     10 C          21.9529   72.1232   -1.9226 C.3     1  UNL1        0.1764
     11 O          23.2044   72.3517   -1.2528 O.3     1  UNL1       -0.3308
     12 O          20.4195   70.3731   -1.1710 O.3     1  UNL1       -0.3794
     13 H          20.5074   70.6008    1.5323 H       1  UNL1        0.2106
     14 H          19.8395   70.1197   -0.4406 H       1  UNL1        0.2105
     15 N          24.1678   72.0180    0.9095 N.ar    1  UNL1       -0.2551
     16 C          24.8351   71.1539    1.6940 C.ar    1  UNL1        0.3323
     17 N          25.7217   71.5901    2.6082 N.ar    1  UNL1       -0.2743
     18 C          25.9488   72.9106    2.7584 C.ar    1  UNL1        0.2626
     19 C          25.2488   73.8317    1.9433 C.ar    1  UNL1        0.0795
     20 C          24.3690   73.3666    1.0305 C.ar    1  UNL1        0.0869
     21 O          24.6412   69.9598    1.5704 O.2     1  UNL1       -0.2464
     22 O          26.7467   73.3064    3.5880 O.2     1  UNL1       -0.2670
     23 H          26.1976   70.9524    3.1623 H       1  UNL1        0.1734
     24 O          21.5303   72.4235   -4.9831 O.3     1  UNL1       -0.2703
     25 P          20.6905   73.2648   -6.0676 P.3     1  UNL1        0.2208
     26 O          21.2656   73.0475   -7.4132 O.2     1  UNL1       -0.5170
     27 O          20.7586   74.8314   -5.7023 O.3     1  UNL1       -0.4371
     28 O          19.1563   72.7785   -6.0548 O.3     1  UNL1       -0.2865
     29 C          19.1093   71.5749   -5.2865 C.3     1  UNL1        0.2611
     30 C          18.2599   70.5381   -6.0236 C.3     1  UNL1        0.1582
     31 C          16.8499   71.1021   -6.2323 C.3     1  UNL1        0.1625
     32 C          16.2968   71.5533   -4.8764 C.3     1  UNL1        0.1686
     33 C          17.2932   72.5161   -4.2271 C.3     1  UNL1        0.1760
     34 O          16.0062   70.0899   -6.7846 O.3     1  UNL1       -0.3801
     35 O          15.0451   72.2154   -5.0672 O.3     1  UNL1       -0.3794
     36 O          18.5362   71.8496   -4.0100 O.3     1  UNL1       -0.3263
     37 H          15.1319   70.4869   -6.8994 H       1  UNL1        0.2105
     38 H          14.7337   72.4829   -4.1909 H       1  UNL1        0.2105
     39 C          18.4405   70.8817   -8.4285 C.2     1  UNL1        0.2231
     40 C          19.0654   70.5757   -9.7657 C.3     1  UNL1        0.0946
     41 N          18.8669   70.2415   -7.3228 N.am    1  UNL1       -0.2994
     42 O          17.5531   71.7040   -8.3479 O.2     1  UNL1       -0.2751
     43 H          19.5769   69.5832   -7.3870 H       1  UNL1        0.1496
     44 C          16.7351   72.9981   -2.8865 C.3     1  UNL1        0.1693
     45 O          15.9328   74.1622   -3.0949 O.3     1  UNL1       -0.3794
     46 H          15.6018   74.4328   -2.2278 H       1  UNL1        0.2105
@<TRIPOS>BOND
     1    29    30    1
     2    29    28    1
     3    29    36    1
     4    30    31    1
     5    30    41    1
     6    31    32    1
     7    31    34    1
     8    32    33    1
     9    32    35    1
    10    33    44    1
    11    33    36    1
    12    44    45    1
    13    39    40    1
    14    39    41   am
    15    39    42    2
    16    41    43    1
    17    28    25    1
    18    34    37    1
    19    35    38    1
    20    45    46    1
    21    15    16   ar
    22    15    20   ar
    23    15     6    1
    24    16    17   ar
    25    16    21    2
    26    17    18   ar
    27    17    23    1
    28    18    19   ar
    29    18    22    2
    30    19    20   ar
    31     6     7    1
    32     6    11    1
    33     7     8    1
    34     7     9    1
    35     8    13    1
    36     9    10    1
    37     9    12    1
    38    10    11    1
    39    10     5    1
    40    12    14    1
    41     5     4    1
    42     4     1    1
    43     1     2    2
    44     1     3    1
    45     1    24    1
    46    24    25    1
    47    25    26    2
    48    25    27    1
@<TRIPOS>MOLECULE
UD1
 46 48 0 0 0
SMALL
GASTEIGER

@<TRIPOS>ATOM
      1 P          19.7635   73.0169   -2.3824 P.3     1  UNL1        0.2189
      2 O          19.9627   74.4636   -2.1452 O.2     1  UNL1       -0.5170
      3 O          21.0322   72.4236   -3.1769 O.3     1  UNL1       -0.4371
      4 O          18.4312   72.7958   -3.2592 O.3     1  UNL1       -0.3112
      5 C          17.6696   71.7793   -2.6057 C.3     1  UNL1        0.1811
      6 C          16.6978   70.4410   -5.7982 C.3     1  UNL1        0.2383
      7 C          17.1319   69.2030   -4.9742 C.3     1  UNL1        0.1895
      8 O          16.3997   68.0428   -5.3706 O.3     1  UNL1       -0.3779
      9 C          16.7585   69.6261   -3.5296 C.3     1  UNL1        0.1713
     10 C          16.6818   71.1636   -3.5979 C.3     1  UNL1        0.1764
     11 O          17.0287   71.5520   -4.9380 O.3     1  UNL1       -0.3308
     12 O          15.4951   69.0717   -3.1566 O.3     1  UNL1       -0.3794
     13 H          16.7162   67.3111   -4.8229 H       1  UNL1        0.2106
     14 H          15.5909   68.1106   -3.1905 H       1  UNL1        0.2105
     15 N          17.4471   70.5186   -7.0528 N.ar    1  UNL1       -0.2551
     16 C          16.7853   70.5985   -8.2203 C.ar    1  UNL1        0.3323
     17 N          17.4486   70.6750   -9.3892 N.ar    1  UNL1       -0.2743
     18 C          18.7967   70.6633   -9.4075 C.ar    1  UNL1        0.2626
     19 C          19.5060   70.5735   -8.1861 C.ar    1  UNL1        0.0795
     20 C          18.8157   70.5034   -7.0277 C.ar    1  UNL1        0.0869
     21 O          15.5694   70.6103   -8.2201 O.2     1  UNL1       -0.2464
     22 O          19.3974   70.7276  -10.4641 O.2     1  UNL1       -0.2670
     23 H          16.9551   70.7369  -10.2216 H       1  UNL1        0.1734
     24 O          19.6096   72.2580   -0.9720 O.3     1  UNL1       -0.2703
     25 P          21.0651   71.6886   -0.5892 P.3     1  UNL1        0.2208
     26 O          21.6251   70.9508   -1.7428 O.2     1  UNL1       -0.5170
     27 O          20.9390   70.6957    0.6719 O.3     1  UNL1       -0.4371
     28 O          22.0393   72.9128   -0.2112 O.3     1  UNL1       -0.2865
     29 C          23.3699   72.4943   -0.5202 C.3     1  UNL1        0.2611
     30 C          24.3093   72.9238    0.6081 C.3     1  UNL1        0.1582
     31 C          24.2433   74.4474    0.7627 C.3     1  UNL1        0.1625
     32 C          24.5236   75.0908   -0.5995 C.3     1  UNL1        0.1686
     33 C          23.5658   74.4999   -1.6363 C.3     1  UNL1        0.1760
     34 O          25.2243   74.8756    1.7091 O.3     1  UNL1       -0.3801
     35 O          24.3231   76.5027   -0.5115 O.3     1  UNL1       -0.3794
     36 O          23.7824   73.0937   -1.7465 O.3     1  UNL1       -0.3263
     37 H          25.1475   75.8374    1.7754 H       1  UNL1        0.2105
     38 H          24.5090   76.8669   -1.3886 H       1  UNL1        0.2105
     39 C          23.0845   72.9382    2.7139 C.2     1  UNL1        0.2231
     40 C          22.6596   72.2808    4.0021 C.3     1  UNL1        0.0946
     41 N          23.8958   72.2854    1.8595 N.am    1  UNL1       -0.2994
     42 O          22.6965   74.0554    2.4466 O.2     1  UNL1       -0.2751
     43 H          24.2066   71.3914    2.0733 H       1  UNL1        0.1496
     44 C          23.8157   75.1597   -2.9940 C.3     1  UNL1        0.1693
     45 O          24.4468   76.4269   -2.7993 O.3     1  UNL1       -0.3794
     46 H          24.5858   76.8080   -3.6769 H       1  UNL1        0.2105
@<TRIPOS>BOND
     1    29    30    1
     2    29    28    1
     3    29    36    1
     4    30    31    1
     5    30    41    1
     6    31    32    1
     7    31    34    1
     8    32    33    1
     9    32    35    1
    10    33    44    1
    11    33    36    1
    12    44    45    1
    13    39    40    1
    14    39    41   am
    15    39    42    2
    16    41    43    1
    17    28    25    1
    18    34    37    1
    19    35    38    1
    20    45    46    1
    21    15    16   ar
    22    15    20   ar
    23    15     6    1
    24    16    17   ar
    25    16    21    2
    26    17    18   ar
    27    17    23    1
    28    18    19   ar
    29    18    22    2
    30    19    20   ar
    31     6     7    1
    32     6    11    1
    33     7     8    1
    34     7     9    1
    35     8    13    1
    36     9    10    1
    37     9    12    1
    38    10    11    1
    39    10     5    1
    40    12    14    1
    41     5     4    1
    42     4     1    1
    43     1     2    2
    44     1     3    1
    45     1    24    1
    46    24    25    1
    47    25    26    2
    48    25    27    1
@<TRIPOS>MOLECULE
UD1
 46 48 0 0 0
SMALL
GASTEIGER

@<TRIPOS>ATOM
      1 P          22.1065   72.5138   -2.1844 P.3     1  UNL1        0.2189
      2 O          21.1917   73.5765   -2.6559 O.2     1  UNL1       -0.5170
      3 O          23.3211   73.1773   -1.3615 O.3     1  UNL1       -0.4371
      4 O          22.6932   71.7106   -3.4508 O.3     1  UNL1       -0.3112
      5 C          22.5941   72.5839   -4.5768 C.3     1  UNL1        0.1811
      6 C          19.5332   71.0988   -5.7397 C.3     1  UNL1        0.2383
      7 C          19.3696   72.6101   -6.0390 C.3     1  UNL1        0.1895
      8 O          18.5544   72.8173   -7.1930 O.3     1  UNL1       -0.3779
      9 C          20.8325   73.0487   -6.3090 C.3     1  UNL1        0.1713
     10 C          21.6820   71.9560   -5.6317 C.3     1  UNL1        0.1764
     11 O          20.7747   71.0323   -5.0064 O.3     1  UNL1       -0.3308
     12 O          21.0904   73.0929   -7.7141 O.3     1  UNL1       -0.3794
     13 H          18.4920   73.7735   -7.3239 H       1  UNL1        0.2106
     14 H          20.4884   73.7501   -8.0879 H       1  UNL1        0.2105
     15 N          18.4235   70.6084   -4.9214 N.ar    1  UNL1       -0.2551
     16 C          17.3560   70.0463   -5.5144 C.ar    1  UNL1        0.3323
     17 N          16.3227   69.5829   -4.7864 N.ar    1  UNL1       -0.2743
     18 C          16.3389   69.6847   -3.4421 C.ar    1  UNL1        0.2626
     19 C          17.4539   70.2797   -2.8052 C.ar    1  UNL1        0.0795
     20 C          18.4791   70.7313   -3.5591 C.ar    1  UNL1        0.0869
     21 O          17.3267   69.9472   -6.7260 O.2     1  UNL1       -0.2464
     22 O          15.4031   69.2705   -2.7832 O.2     1  UNL1       -0.2670
     23 H          15.5628   69.1760   -5.2305 H       1  UNL1        0.1734
     24 O          21.3025   71.4978   -1.2304 O.3     1  UNL1       -0.2703
     25 P          22.2057   71.2804    0.0834 P.3     1  UNL1        0.2208
     26 O          23.5979   70.9824   -0.3189 O.2     1  UNL1       -0.5170
     27 O          21.6204   70.0495    0.9404 O.3     1  UNL1       -0.4371
     28 O          22.1808   72.6166    0.9804 O.3     1  UNL1       -0.2865
     29 C          21.0429   72.5186    1.8386 C.3     1  UNL1        0.2611
     30 C          20.1439   73.7380    1.6267 C.3     1  UNL1        0.1582
     31 C          20.9439   75.0095    1.9318 C.3     1  UNL1        0.1625
     32 C          21.5506   74.8824    3.3331 C.3     1  UNL1        0.1686
     33 C          22.3461   73.5779    3.4153 C.3     1  UNL1        0.1760
     34 O          20.0767   76.1440    1.8829 O.3     1  UNL1       -0.3801
     35 O          22.4191   75.9898    3.5801 O.3     1  UNL1       -0.3794
     36 O          21.4761   72.4681    3.1962 O.3     1  UNL1       -0.3263
     37 H          20.6200   76.9195    2.0799 H       1  UNL1        0.2105
     38 H          22.7792   75.8698    4.4703 H       1  UNL1        0.2105
     39 C          18.4122   74.1216   -0.0431 C.2     1  UNL1        0.2231
     40 C          17.9369   74.1545   -1.4732 C.3     1  UNL1        0.0946
     41 N          19.6819   73.7706    0.2375 N.am    1  UNL1       -0.2994
     42 O          17.6511   74.4106    0.8555 O.2     1  UNL1       -0.2751
     43 H          20.2911   73.5391   -0.4814 H       1  UNL1        0.1496
     44 C          22.9833   73.4570    4.8011 C.3     1  UNL1        0.1693
     45 O          22.0365   72.8985    5.7142 O.3     1  UNL1       -0.3794
     46 H          22.4768   72.8399    6.5728 H       1  UNL1        0.2105
@<TRIPOS>BOND
     1    29    30    1
     2    29    28    1
     3    29    36    1
     4    30    31    1
     5    30    41    1
     6    31    32    1
     7    31    34    1
     8    32    33    1
     9    32    35    1
    10    33    44    1
    11    33    36    1
    12    44    45    1
    13    39    40    1
    14    39    41   am
    15    39    42    2
    16    41    43    1
    17    28    25    1
    18    34    37    1
    19    35    38    1
    20    45    46    1
    21    15    16   ar
    22    15    20   ar
    23    15     6    1
    24    16    17   ar
    25    16    21    2
    26    17    18   ar
    27    17    23    1
    28    18    19   ar
    29    18    22    2
    30    19    20   ar
    31     6     7    1
    32     6    11    1
    33     7     8    1
    34     7     9    1
    35     8    13    1
    36     9    10    1
    37     9    12    1
    38    10    11    1
    39    10     5    1
    40    12    14    1
    41     5     4    1
    42     4     1    1
    43     1     2    2
    44     1     3    1
    45     1    24    1
    46    24    25    1
    47    25    26    2
    48    25    27    1
@<TRIPOS>MOLECULE
UD1
 46 48 0 0 0
SMALL
GASTEIGER

@<TRIPOS>ATOM
      1 P          17.1520   69.6112   -2.7317 P.3     1  UNL1        0.2189
      2 O          18.5285   69.5909   -2.1899 O.2     1  UNL1       -0.5170
      3 O          16.6521   71.1355   -2.8704 O.3     1  UNL1       -0.4371
      4 O          16.1712   68.8146   -1.7335 O.3     1  UNL1       -0.3112
      5 C          15.3558   69.7927   -1.0865 C.3     1  UNL1        0.1811
      6 C          12.7536   68.1187    0.7449 C.3     1  UNL1        0.2383
      7 C          12.5474   69.6209    1.0629 C.3     1  UNL1        0.1895
      8 O          11.1682   69.9097    1.2946 O.3     1  UNL1       -0.3779
      9 C          13.0439   70.3006   -0.2397 C.3     1  UNL1        0.1713
     10 C          13.9435   69.2366   -0.8978 C.3     1  UNL1        0.1764
     11 O          13.9791   68.1002   -0.0177 O.3     1  UNL1       -0.3308
     12 O          11.9395   70.6248   -1.0871 O.3     1  UNL1       -0.3794
     13 H          11.1085   70.8558    1.4864 H       1  UNL1        0.2106
     14 H          11.3845   71.2461   -0.5972 H       1  UNL1        0.2105
     15 N          12.9005   67.3425    1.9767 N.ar    1  UNL1       -0.2551
     16 C          12.5645   66.0408    1.9880 C.ar    1  UNL1        0.3323
     17 N          12.6929   65.3015    3.1056 N.ar    1  UNL1       -0.2743
     18 C          13.1551   65.8617    4.2416 C.ar    1  UNL1        0.2626
     19 C          13.5068   67.2326    4.2453 C.ar    1  UNL1        0.0795
     20 C          13.3732   67.9495    3.1089 C.ar    1  UNL1        0.0869
     21 O          12.1462   65.5211    0.9713 O.2     1  UNL1       -0.2464
     22 O          13.2670   65.1954    5.2539 O.2     1  UNL1       -0.2670
     23 H          12.4502   64.3628    3.0945 H       1  UNL1        0.1734
     24 O          17.1339   68.9058   -4.1777 O.3     1  UNL1       -0.2703
     25 P          17.3616   70.0695   -5.2655 P.3     1  UNL1        0.2208
     26 O          16.4648   71.2073   -4.9654 O.2     1  UNL1       -0.5170
     27 O          17.0336   69.5021   -6.7361 O.3     1  UNL1       -0.4371
     28 O          18.8923   70.5641   -5.2118 O.3     1  UNL1       -0.2865
     29 C          18.8753   71.9832   -5.3762 C.3     1  UNL1        0.2611
     30 C          19.7739   72.3659   -6.5535 C.3     1  UNL1        0.1582
     31 C          21.1981   71.8700   -6.2790 C.3     1  UNL1        0.1625
     32 C          21.6484   72.4032   -4.9148 C.3     1  UNL1        0.1686
     33 C          20.6097   72.0149   -3.8605 C.3     1  UNL1        0.1760
     34 O          22.0770   72.3498   -7.2982 O.3     1  UNL1       -0.3801
     35 O          22.9138   71.8343   -4.5733 O.3     1  UNL1       -0.3794
     36 O          19.3508   72.6042   -4.1839 O.3     1  UNL1       -0.3263
     37 H          22.9593   72.0148   -7.0867 H       1  UNL1        0.2105
     38 H          23.1588   72.1953   -3.7095 H       1  UNL1        0.2105
     39 C          19.7912   70.5846   -8.2151 C.2     1  UNL1        0.2231
     40 C          19.2686   69.9470   -9.4771 C.3     1  UNL1        0.0946
     41 N          19.2663   71.7459   -7.7792 N.am    1  UNL1       -0.2994
     42 O          20.6850   70.0523   -7.5921 O.2     1  UNL1       -0.2751
     43 H          18.5511   72.1721   -8.2776 H       1  UNL1        0.1496
     44 C          21.0661   72.5149   -2.4883 C.3     1  UNL1        0.1693
     45 O          21.7799   71.4756   -1.8155 O.3     1  UNL1       -0.3794
     46 H          22.0487   71.8309   -0.9575 H       1  UNL1        0.2105
@<TRIPOS>BOND
     1    29    30    1
     2    29    28    1
     3    29    36    1
     4    30    31    1
     5    30    41    1
     6    31    32    1
     7    31    34    1
     8    32    33    1
     9    32    35    1
    10    33    44    1
    11    33    36    1
    12    44    45    1
    13    39    40    1
    14    39    41   am
    15    39    42    2
    16    41    43    1
    17    28    25    1
    18    34    37    1
    19    35    38    1
    20    45    46    1
    21    15    16   ar
    22    15    20   ar
    23    15     6    1
    24    16    17   ar
    25    16    21    2
    26    17    18   ar
    27    17    23    1
    28    18    19   ar
    29    18    22    2
    30    19    20   ar
    31     6     7    1
    32     6    11    1
    33     7     8    1
    34     7     9    1
    35     8    13    1
    36     9    10    1
    37     9    12    1
    38    10    11    1
    39    10     5    1
    40    12    14    1
    41     5     4    1
    42     4     1    1
    43     1     2    2
    44     1     3    1
    45     1    24    1
    46    24    25    1
    47    25    26    2
    48    25    27    1
@<TRIPOS>MOLECULE
UD1
 46 48 0 0 0
SMALL
GASTEIGER

@<TRIPOS>ATOM
      1 P          22.0454   71.3722   -2.7399 P.3     1  UNL1        0.2189
      2 O          22.7912   71.8416   -3.9282 O.2     1  UNL1       -0.5170
      3 O          23.0845   70.9864   -1.5719 O.3     1  UNL1       -0.4371
      4 O          21.1740   70.0760   -3.1313 O.3     1  UNL1       -0.3112
      5 C          20.3816   70.4365   -4.2637 C.3     1  UNL1        0.1811
      6 C          16.8895   71.0717   -4.8374 C.3     1  UNL1        0.2383
      7 C          17.0666   69.5649   -5.1512 C.3     1  UNL1        0.1895
      8 O          15.8745   68.8373   -4.8534 O.3     1  UNL1       -0.3779
      9 C          18.2145   69.1645   -4.1882 C.3     1  UNL1        0.1713
     10 C          18.9085   70.4999   -3.8573 C.3     1  UNL1        0.1764
     11 O          18.2388   71.5291   -4.6053 O.3     1  UNL1       -0.3308
     12 O          17.6872   68.5606   -3.0050 O.3     1  UNL1       -0.3794
     13 H          16.0501   67.9112   -5.0703 H       1  UNL1        0.2106
     14 H          17.2155   67.7646   -3.2842 H       1  UNL1        0.2105
     15 N          16.2955   71.7731   -5.9761 N.ar    1  UNL1       -0.2551
     16 C          16.4995   71.3124   -7.2225 C.ar    1  UNL1        0.3323
     17 N          15.9621   71.9351   -8.2882 N.ar    1  UNL1       -0.2743
     18 C          15.2132   73.0438   -8.1211 C.ar    1  UNL1        0.2626
     19 C          14.9954   73.5430   -6.8149 C.ar    1  UNL1        0.0795
     20 C          15.5418   72.8958   -5.7633 C.ar    1  UNL1        0.0869
     21 O          17.1725   70.3135   -7.3894 O.2     1  UNL1       -0.2464
     22 O          14.7308   73.6103   -9.0843 O.2     1  UNL1       -0.2670
     23 H          16.1156   71.5862   -9.1798 H       1  UNL1        0.1734
     24 O          21.0668   72.5408   -2.2244 O.3     1  UNL1       -0.2703
     25 P          20.5442   72.1006   -0.7675 P.3     1  UNL1        0.2208
     26 O          20.3502   70.6342   -0.7354 O.2     1  UNL1       -0.5170
     27 O          19.1452   72.8333   -0.4544 O.3     1  UNL1       -0.4371
     28 O          21.6297   72.5226    0.3435 O.3     1  UNL1       -0.2865
     29 C          21.2219   71.9181    1.5720 C.3     1  UNL1        0.2611
     30 C          21.0786   72.9999    2.6440 C.3     1  UNL1        0.1582
     31 C          22.4220   73.7180    2.8141 C.3     1  UNL1        0.1625
     32 C          23.5068   72.6705    3.0859 C.3     1  UNL1        0.1686
     33 C          23.4689   71.6150    1.9787 C.3     1  UNL1        0.1760
     34 O          22.3433   74.6270    3.9137 O.3     1  UNL1       -0.3801
     35 O          24.7882   73.3025    3.1020 O.3     1  UNL1       -0.3794
     36 O          22.1997   70.9627    1.9777 O.3     1  UNL1       -0.3263
     37 H          23.2072   75.0559    3.9841 H       1  UNL1        0.2105
     38 H          25.4402   72.6086    3.2749 H       1  UNL1        0.2105
     39 C          19.1538   74.4124    3.1280 C.2     1  UNL1        0.2231
     40 C          18.1005   75.4043    2.7048 C.3     1  UNL1        0.0946
     41 N          20.0555   73.9638    2.2336 N.am    1  UNL1       -0.2994
     42 O          19.1892   74.0174    4.2738 O.2     1  UNL1       -0.2751
     43 H          20.0273   74.2796    1.3165 H       1  UNL1        0.1496
     44 C          24.5703   70.5814    2.2232 C.3     1  UNL1        0.1693
     45 O          25.6323   70.7863    1.2893 O.3     1  UNL1       -0.3794
     46 H          26.3033   70.1161    1.4771 H       1  UNL1        0.2105
@<TRIPOS>BOND
     1    29    30    1
     2    29    28    1
     3    29    36    1
     4    30    31    1
     5    30    41    1
     6    31    32    1
     7    31    34    1
     8    32    33    1
     9    32    35    1
    10    33    44    1
    11    33    36    1
    12    44    45    1
    13    39    40    1
    14    39    41   am
    15    39    42    2
    16    41    43    1
    17    28    25    1
    18    34    37    1
    19    35    38    1
    20    45    46    1
    21    15    16   ar
    22    15    20   ar
    23    15     6    1
    24    16    17   ar
    25    16    21    2
    26    17    18   ar
    27    17    23    1
    28    18    19   ar
    29    18    22    2
    30    19    20   ar
    31     6     7    1
    32     6    11    1
    33     7     8    1
    34     7     9    1
    35     8    13    1
    36     9    10    1
    37     9    12    1
    38    10    11    1
    39    10     5    1
    40    12    14    1
    41     5     4    1
    42     4     1    1
    43     1     2    2
    44     1     3    1
    45     1    24    1
    46    24    25    1
    47    25    26    2
    48    25    27    1
@<TRIPOS>MOLECULE
UD1
 46 48 0 0 0
SMALL
GASTEIGER

@<TRIPOS>ATOM
      1 P          22.7286   72.3046   -3.7556 P.3     1  UNL1        0.2189
      2 O          24.0901   72.3778   -4.3299 O.2     1  UNL1       -0.5170
      3 O          22.2393   73.7825   -3.3445 O.3     1  UNL1       -0.4371
      4 O          22.7479   71.3639   -2.4489 O.3     1  UNL1       -0.3112
      5 C          23.1435   72.1881   -1.3514 C.3     1  UNL1        0.1811
      6 C          24.5876   71.5121    1.8712 C.3     1  UNL1        0.2383
      7 C          23.1445   71.9815    2.1832 C.3     1  UNL1        0.1895
      8 O          22.6500   71.3594    3.3697 O.3     1  UNL1       -0.3779
      9 C          22.3655   71.4909    0.9352 C.3     1  UNL1        0.1713
     10 C          23.4553   71.3094   -0.1390 C.3     1  UNL1        0.1764
     11 O          24.7062   71.7097    0.4462 O.3     1  UNL1       -0.3308
     12 O          21.7124   70.2494    1.2092 O.3     1  UNL1       -0.3794
     13 H          21.7526   71.6927    3.5076 H       1  UNL1        0.2106
     14 H          21.0877   70.4152    1.9278 H       1  UNL1        0.2105
     15 N          25.5663   72.3298    2.5888 N.ar    1  UNL1       -0.2551
     16 C          26.7995   71.8457    2.8172 C.ar    1  UNL1        0.3323
     17 N          27.7212   72.5771    3.4712 N.ar    1  UNL1       -0.2743
     18 C          27.4162   73.8120    3.9185 C.ar    1  UNL1        0.2626
     19 C          26.1198   74.3316    3.6901 C.ar    1  UNL1        0.0795
     20 C          25.2164   73.5786    3.0267 C.ar    1  UNL1        0.0869
     21 O          27.0897   70.7336    2.4200 O.2     1  UNL1       -0.2464
     22 O          28.2473   74.4723    4.5141 O.2     1  UNL1       -0.2670
     23 H          28.6073   72.2140    3.6231 H       1  UNL1        0.1734
     24 O          21.7188   71.6878   -4.8458 O.3     1  UNL1       -0.2703
     25 P          20.3658   71.3062   -4.0628 P.3     1  UNL1        0.2208
     26 O          19.7875   72.5247   -3.4547 O.2     1  UNL1       -0.5170
     27 O          20.6977   70.2361   -2.9065 O.3     1  UNL1       -0.4371
     28 O          19.3086   70.6681   -5.0950 O.3     1  UNL1       -0.2865
     29 C          18.6196   71.7583   -5.7097 C.3     1  UNL1        0.2611
     30 C          17.1494   71.3824   -5.9025 C.3     1  UNL1        0.1582
     31 C          17.0638   70.1263   -6.7768 C.3     1  UNL1        0.1625
     32 C          17.8483   70.3745   -8.0695 C.3     1  UNL1        0.1686
     33 C          19.2669   70.8236   -7.7131 C.3     1  UNL1        0.1760
     34 O          15.6966   69.8516   -7.0878 O.3     1  UNL1       -0.3801
     35 O          17.9051   69.1682   -8.8332 O.3     1  UNL1       -0.3794
     36 O          19.2151   72.0431   -6.9736 O.3     1  UNL1       -0.3263
     37 H          15.6894   69.0558   -7.6372 H       1  UNL1        0.2105
     38 H          18.4071   69.3687   -9.6359 H       1  UNL1        0.2105
     39 C          16.4813   69.8563   -4.1252 C.2     1  UNL1        0.2231
     40 C          15.8502   69.5822   -2.7840 C.3     1  UNL1        0.0946
     41 N          16.5369   71.1157   -4.5994 N.am    1  UNL1       -0.2994
     42 O          16.9385   68.9426   -4.7781 O.2     1  UNL1       -0.2751
     43 H          16.1709   71.8471   -4.0772 H       1  UNL1        0.1496
     44 C          20.0690   71.0430   -8.9975 C.3     1  UNL1        0.1693
     45 O          19.1716   71.2238  -10.0949 O.3     1  UNL1       -0.3794
     46 H          19.7161   71.3582  -10.8824 H       1  UNL1        0.2105
@<TRIPOS>BOND
     1    29    30    1
     2    29    28    1
     3    29    36    1
     4    30    31    1
     5    30    41    1
     6    31    32    1
     7    31    34    1
     8    32    33    1
     9    32    35    1
    10    33    44    1
    11    33    36    1
    12    44    45    1
    13    39    40    1
    14    39    41   am
    15    39    42    2
    16    41    43    1
    17    28    25    1
    18    34    37    1
    19    35    38    1
    20    45    46    1
    21    15    16   ar
    22    15    20   ar
    23    15     6    1
    24    16    17   ar
    25    16    21    2
    26    17    18   ar
    27    17    23    1
    28    18    19   ar
    29    18    22    2
    30    19    20   ar
    31     6     7    1
    32     6    11    1
    33     7     8    1
    34     7     9    1
    35     8    13    1
    36     9    10    1
    37     9    12    1
    38    10    11    1
    39    10     5    1
    40    12    14    1
    41     5     4    1
    42     4     1    1
    43     1     2    2
    44     1     3    1
    45     1    24    1
    46    24    25    1
    47    25    26    2
    48    25    27    1
@<TRIPOS>MOLECULE
UD1
 46 48 0 0 0
SMALL
GASTEIGER

@<TRIPOS>ATOM
      1 P          16.8195   69.4668   -3.0021 P.3     1  UNL1        0.2189
      2 O          16.8273   70.9415   -2.8844 O.2     1  UNL1       -0.5170
      3 O          16.1233   69.0429   -4.3907 O.3     1  UNL1       -0.4371
      4 O          15.9920   68.8353   -1.7735 O.3     1  UNL1       -0.3112
      5 C          15.1827   69.8832   -1.2375 C.3     1  UNL1        0.1811
      6 C          12.6381   68.2335    0.6940 C.3     1  UNL1        0.2383
      7 C          12.4883   69.7327    1.0546 C.3     1  UNL1        0.1895
      8 O          11.1313   70.0505    1.3658 O.3     1  UNL1       -0.3779
      9 C          12.9328   70.4293   -0.2578 C.3     1  UNL1        0.1713
     10 C          13.7683   69.3584   -0.9855 C.3     1  UNL1        0.1764
     11 O          13.8207   68.2017   -0.1331 O.3     1  UNL1       -0.3308
     12 O          11.7941   70.8001   -1.0379 O.3     1  UNL1       -0.3794
     13 H          11.1065   70.9932    1.5808 H       1  UNL1        0.2106
     14 H          11.2822   71.4238   -0.5058 H       1  UNL1        0.2105
     15 N          12.8295   67.4260    1.8993 N.ar    1  UNL1       -0.2551
     16 C          12.5371   66.1140    1.8758 C.ar    1  UNL1        0.3323
     17 N          12.7071   65.3462    2.9684 N.ar    1  UNL1       -0.2743
     18 C          13.1678   65.8874    4.1142 C.ar    1  UNL1        0.2626
     19 C          13.4740   67.2685    4.1546 C.ar    1  UNL1        0.0795
     20 C          13.2992   68.0143    3.0426 C.ar    1  UNL1        0.0869
     21 O          12.1207   65.6113    0.8498 O.2     1  UNL1       -0.2464
     22 O          13.3174   65.1951    5.1040 O.2     1  UNL1       -0.2670
     23 H          12.4956   64.4006    2.9321 H       1  UNL1        0.1734
     24 O          18.3315   68.9177   -2.9690 O.3     1  UNL1       -0.2703
     25 P          19.2915   70.1838   -3.2232 P.3     1  UNL1        0.2208
     26 O          20.6585   69.7115   -3.5349 O.2     1  UNL1       -0.5170
     27 O          19.3303   71.1027   -1.9017 O.3     1  UNL1       -0.4371
     28 O          18.7274   71.0471   -4.4589 O.3     1  UNL1       -0.2865
     29 C          19.5033   70.6884   -5.6037 C.3     1  UNL1        0.2611
     30 C          20.2633   71.9180   -6.1042 C.3     1  UNL1        0.1582
     31 C          19.2576   73.0200   -6.4559 C.3     1  UNL1        0.1625
     32 C          18.2261   72.4482   -7.4342 C.3     1  UNL1        0.1686
     33 C          17.6175   71.1800   -6.8319 C.3     1  UNL1        0.1760
     34 O          19.9423   74.1169   -7.0637 O.3     1  UNL1       -0.3801
     35 O          17.1967   73.4127   -7.6612 O.3     1  UNL1       -0.3794
     36 O          18.6390   70.2043   -6.6293 O.3     1  UNL1       -0.3263
     37 H          19.2736   74.7852   -7.2677 H       1  UNL1        0.2105
     38 H          16.5699   73.0124   -8.2804 H       1  UNL1        0.2105
     39 C          22.4718   72.5925   -5.3282 C.2     1  UNL1        0.2231
     40 C          23.4022   73.0834   -4.2486 C.3     1  UNL1        0.0946
     41 N          21.1675   72.3953   -5.0558 N.am    1  UNL1       -0.2994
     42 O          22.8975   72.3743   -6.4424 O.2     1  UNL1       -0.2751
     43 H          20.8266   72.5697   -4.1642 H       1  UNL1        0.1496
     44 C          16.5622   70.6189   -7.7872 C.3     1  UNL1        0.1693
     45 O          17.0915   70.5826   -9.1141 O.3     1  UNL1       -0.3794
     46 H          16.3967   70.2241   -9.6828 H       1  UNL1        0.2105
@<TRIPOS>BOND
     1    29    30    1
     2    29    28    1
     3    29    36    1
     4    30    31    1
     5    30    41    1
     6    31    32    1
     7    31    34    1
     8    32    33    1
     9    32    35    1
    10    33    44    1
    11    33    36    1
    12    44    45    1
    13    39    40    1
    14    39    41   am
    15    39    42    2
    16    41    43    1
    17    28    25    1
    18    34    37    1
    19    35    38    1
    20    45    46    1
    21    15    16   ar
    22    15    20   ar
    23    15     6    1
    24    16    17   ar
    25    16    21    2
    26    17    18   ar
    27    17    23    1
    28    18    19   ar
    29    18    22    2
    30    19    20   ar
    31     6     7    1
    32     6    11    1
    33     7     8    1
    34     7     9    1
    35     8    13    1
    36     9    10    1
    37     9    12    1
    38    10    11    1
    39    10     5    1
    40    12    14    1
    41     5     4    1
    42     4     1    1
    43     1     2    2
    44     1     3    1
    45     1    24    1
    46    24    25    1
    47    25    26    2
    48    25    27    1
@<TRIPOS>MOLECULE
UD1
 46 48 0 0 0
SMALL
GASTEIGER

@<TRIPOS>ATOM
      1 P          21.5815   71.3650    0.1361 P.3     1  UNL1        0.2189
      2 O          21.5581   70.1284    0.9479 O.2     1  UNL1       -0.5170
      3 O          20.0872   71.9509    0.0075 O.3     1  UNL1       -0.4371
      4 O          22.1545   71.0322   -1.3314 O.3     1  UNL1       -0.3112
      5 C          21.0256   70.9019   -2.1968 C.3     1  UNL1        0.1811
      6 C          20.5748   70.8017   -5.7625 C.3     1  UNL1        0.2383
      7 C          20.9430   72.2756   -5.4591 C.3     1  UNL1        0.1895
      8 O          21.6465   72.8626   -6.5545 O.3     1  UNL1       -0.3779
      9 C          21.8665   72.1324   -4.2214 C.3     1  UNL1        0.1713
     10 C          21.5041   70.7514   -3.6417 C.3     1  UNL1        0.1764
     11 O          20.4479   70.2089   -4.4525 O.3     1  UNL1       -0.3308
     12 O          23.2400   72.1723   -4.6146 O.3     1  UNL1       -0.3794
     13 H          21.8449   73.7753   -6.3032 H       1  UNL1        0.2106
     14 H          23.3887   73.0357   -5.0227 H       1  UNL1        0.2105
     15 N          19.3076   70.7221   -6.4900 N.ar    1  UNL1       -0.2551
     16 C          18.1580   71.0214   -5.8605 C.ar    1  UNL1        0.3323
     17 N          16.9782   70.9606   -6.5059 N.ar    1  UNL1       -0.2743
     18 C          16.9303   70.5870   -7.8005 C.ar    1  UNL1        0.2626
     19 C          18.1324   70.2634   -8.4737 C.ar    1  UNL1        0.0795
     20 C          19.3025   70.3379   -7.8038 C.ar    1  UNL1        0.0869
     21 O          18.1848   71.3601   -4.6930 O.2     1  UNL1       -0.2464
     22 O          15.8637   70.5271   -8.3837 O.2     1  UNL1       -0.2670
     23 H          16.1592   71.1845   -6.0376 H       1  UNL1        0.1734
     24 O          22.5272   72.4557    0.8467 O.3     1  UNL1       -0.2703
     25 P          22.2581   72.3439    2.4292 P.3     1  UNL1        0.2208
     26 O          23.1382   71.3044    3.0068 O.2     1  UNL1       -0.5170
     27 O          20.7192   71.9462    2.6858 O.3     1  UNL1       -0.4371
     28 O          22.5689   73.7595    3.1290 O.3     1  UNL1       -0.2865
     29 C          23.0267   73.4760    4.4524 C.3     1  UNL1        0.2611
     30 C          22.1839   74.2627    5.4577 C.3     1  UNL1        0.1582
     31 C          22.3065   75.7597    5.1518 C.3     1  UNL1        0.1625
     32 C          23.7924   76.1321    5.1140 C.3     1  UNL1        0.1686
     33 C          24.5134   75.2062    4.1321 C.3     1  UNL1        0.1760
     34 O          21.6466   76.5124    6.1713 O.3     1  UNL1       -0.3801
     35 O          23.9345   77.4882    4.6866 O.3     1  UNL1       -0.3794
     36 O          24.3968   73.8533    4.5709 O.3     1  UNL1       -0.3263
     37 H          21.7480   77.4458    5.9393 H       1  UNL1        0.2105
     38 H          24.8829   77.6803    4.6763 H       1  UNL1        0.2105
     39 C          19.9246   74.5746    4.6019 C.2     1  UNL1        0.2231
     40 C          18.4817   74.1526    4.4904 C.3     1  UNL1        0.0946
     41 N          20.7823   73.8529    5.3487 N.am    1  UNL1       -0.2994
     42 O          20.3134   75.5644    4.0195 O.2     1  UNL1       -0.2751
     43 H          20.4713   73.0609    5.8150 H       1  UNL1        0.1496
     44 C          25.9927   75.5912    4.0625 C.3     1  UNL1        0.1693
     45 O          26.6413   75.2131    5.2784 O.3     1  UNL1       -0.3794
     46 H          27.5687   75.4729    5.1934 H       1  UNL1        0.2105
@<TRIPOS>BOND
     1    29    30    1
     2    29    28    1
     3    29    36    1
     4    30    31    1
     5    30    41    1
     6    31    32    1
     7    31    34    1
     8    32    33    1
     9    32    35    1
    10    33    44    1
    11    33    36    1
    12    44    45    1
    13    39    40    1
    14    39    41   am
    15    39    42    2
    16    41    43    1
    17    28    25    1
    18    34    37    1
    19    35    38    1
    20    45    46    1
    21    15    16   ar
    22    15    20   ar
    23    15     6    1
    24    16    17   ar
    25    16    21    2
    26    17    18   ar
    27    17    23    1
    28    18    19   ar
    29    18    22    2
    30    19    20   ar
    31     6     7    1
    32     6    11    1
    33     7     8    1
    34     7     9    1
    35     8    13    1
    36     9    10    1
    37     9    12    1
    38    10    11    1
    39    10     5    1
    40    12    14    1
    41     5     4    1
    42     4     1    1
    43     1     2    2
    44     1     3    1
    45     1    24    1
    46    24    25    1
    47    25    26    2
    48    25    27    1
@<TRIPOS>MOLECULE
UD1
 46 48 0 0 0
SMALL
GASTEIGER

@<TRIPOS>ATOM
      1 P          16.6109   69.7515   -3.2583 P.3     1  UNL1        0.2189
      2 O          16.7983   68.6939   -4.2757 O.2     1  UNL1       -0.5170
      3 O          17.9795   69.9520   -2.4341 O.3     1  UNL1       -0.4371
      4 O          15.4347   69.3199   -2.2467 O.3     1  UNL1       -0.3112
      5 C          14.9440   70.5196   -1.6466 C.3     1  UNL1        0.1811
      6 C          12.2152   69.1503    0.2523 C.3     1  UNL1        0.2383
      7 C          12.5604   70.4785    0.9712 C.3     1  UNL1        0.1895
      8 O          11.3989   71.0506    1.5735 O.3     1  UNL1       -0.3779
      9 C          13.0680   71.3600   -0.1994 C.3     1  UNL1        0.1713
     10 C          13.4678   70.3443   -1.2870 C.3     1  UNL1        0.1764
     11 O          13.2487   69.0294   -0.7481 O.3     1  UNL1       -0.3308
     12 O          12.0260   72.2193   -0.6670 O.3     1  UNL1       -0.3794
     13 H          11.6807   71.8704    2.0025 H       1  UNL1        0.2106
     14 H          11.7794   72.7882    0.0743 H       1  UNL1        0.2105
     15 N          12.2671   68.0252    1.1866 N.ar    1  UNL1       -0.2551
     16 C          13.4575   67.5562    1.5993 C.ar    1  UNL1        0.3323
     17 N          13.5352   66.5251    2.4613 N.ar    1  UNL1       -0.2743
     18 C          12.4120   65.9369    2.9201 C.ar    1  UNL1        0.2626
     19 C          11.1523   66.4167    2.4891 C.ar    1  UNL1        0.0795
     20 C          11.1032   67.4558    1.6281 C.ar    1  UNL1        0.0869
     21 O          14.4793   68.0763    1.1945 O.2     1  UNL1       -0.2464
     22 O          12.4812   65.0015    3.6957 O.2     1  UNL1       -0.2670
     23 H          14.4022   66.2028    2.7521 H       1  UNL1        0.1734
     24 O          16.2139   71.1310   -3.9851 O.3     1  UNL1       -0.2703
     25 P          16.6690   70.9942   -5.5225 P.3     1  UNL1        0.2208
     26 O          15.7644   71.7938   -6.3776 O.2     1  UNL1       -0.5170
     27 O          16.6000   69.4485   -5.9678 O.3     1  UNL1       -0.4371
     28 O          18.1771   71.5317   -5.6869 O.3     1  UNL1       -0.2865
     29 C          19.0260   70.3829   -5.7140 C.3     1  UNL1        0.2611
     30 C          20.4147   70.7688   -5.2016 C.3     1  UNL1        0.1582
     31 C          20.9838   71.8831   -6.0871 C.3     1  UNL1        0.1625
     32 C          20.9325   71.4228   -7.5478 C.3     1  UNL1        0.1686
     33 C          19.5037   70.9903   -7.8841 C.3     1  UNL1        0.1760
     34 O          22.3369   72.1484   -5.7125 O.3     1  UNL1       -0.3801
     35 O          21.3208   72.5001   -8.4023 O.3     1  UNL1       -0.3794
     36 O          19.1225   69.8963   -7.0509 O.3     1  UNL1       -0.3263
     37 H          22.6543   72.8537   -6.2931 H       1  UNL1        0.2105
     38 H          21.2737   72.1681   -9.3101 H       1  UNL1        0.2105
     39 C          21.2608   70.9147   -2.9219 C.2     1  UNL1        0.2231
     40 C          21.1550   71.4036   -1.4999 C.3     1  UNL1        0.0946
     41 N          20.3127   71.2439   -3.8202 N.am    1  UNL1       -0.2994
     42 O          22.1994   70.2243   -3.2574 O.2     1  UNL1       -0.2751
     43 H          19.5613   71.7962   -3.5519 H       1  UNL1        0.1496
     44 C          19.4345   70.5593   -9.3505 C.3     1  UNL1        0.1693
     45 O          18.5625   71.4376  -10.0649 O.3     1  UNL1       -0.3794
     46 H          18.5469   71.1315  -10.9819 H       1  UNL1        0.2105
@<TRIPOS>BOND
     1    29    30    1
     2    29    28    1
     3    29    36    1
     4    30    31    1
     5    30    41    1
     6    31    32    1
     7    31    34    1
     8    32    33    1
     9    32    35    1
    10    33    44    1
    11    33    36    1
    12    44    45    1
    13    39    40    1
    14    39    41   am
    15    39    42    2
    16    41    43    1
    17    28    25    1
    18    34    37    1
    19    35    38    1
    20    45    46    1
    21    15    16   ar
    22    15    20   ar
    23    15     6    1
    24    16    17   ar
    25    16    21    2
    26    17    18   ar
    27    17    23    1
    28    18    19   ar
    29    18    22    2
    30    19    20   ar
    31     6     7    1
    32     6    11    1
    33     7     8    1
    34     7     9    1
    35     8    13    1
    36     9    10    1
    37     9    12    1
    38    10    11    1
    39    10     5    1
    40    12    14    1
    41     5     4    1
    42     4     1    1
    43     1     2    2
    44     1     3    1
    45     1    24    1
    46    24    25    1
    47    25    26    2
    48    25    27    1
@<TRIPOS>MOLECULE
UD1
 46 48 0 0 0
SMALL
GASTEIGER

@<TRIPOS>ATOM
      1 P          20.9179   71.3509   -1.1703 P.3     1  UNL1        0.2189
      2 O          21.7501   70.7430   -2.2317 O.2     1  UNL1       -0.5170
      3 O          20.9634   70.4231    0.1449 O.3     1  UNL1       -0.4371
      4 O          19.3976   71.4748   -1.6861 O.3     1  UNL1       -0.3112
      5 C          19.1277   70.3070   -2.4631 C.3     1  UNL1        0.1811
      6 C          17.2719   70.4794   -5.5378 C.3     1  UNL1        0.2383
      7 C          17.0701   69.0250   -5.0436 C.3     1  UNL1        0.1895
      8 O          15.7997   68.5176   -5.4533 O.3     1  UNL1       -0.3779
      9 C          17.1280   69.1936   -3.5031 C.3     1  UNL1        0.1713
     10 C          17.8673   70.5303   -3.3002 C.3     1  UNL1        0.1764
     11 O          18.2260   71.0247   -4.6018 O.3     1  UNL1       -0.3308
     12 O          15.8088   69.2561   -2.9567 O.3     1  UNL1       -0.3794
     13 H          15.7372   67.6133   -5.1161 H       1  UNL1        0.2106
     14 H          15.3791   68.4165   -3.1677 H       1  UNL1        0.2105
     15 N          17.8149   70.4956   -6.8967 N.ar    1  UNL1       -0.2551
     16 C          16.9801   70.4306   -7.9485 C.ar    1  UNL1        0.3323
     17 N          17.4513   70.4476   -9.2094 N.ar    1  UNL1       -0.2743
     18 C          18.7781   70.5214   -9.4381 C.ar    1  UNL1        0.2626
     19 C          19.6685   70.5844   -8.3398 C.ar    1  UNL1        0.0795
     20 C          19.1685   70.5710   -7.0855 C.ar    1  UNL1        0.0869
     21 O          15.7809   70.3637   -7.7585 O.2     1  UNL1       -0.2464
     22 O          19.2055   70.5320  -10.5776 O.2     1  UNL1       -0.2670
     23 H          16.8345   70.4047   -9.9563 H       1  UNL1        0.1734
     24 O          21.4849   72.8143   -0.8157 O.3     1  UNL1       -0.2703
     25 P          20.8414   73.2321    0.5988 P.3     1  UNL1        0.2208
     26 O          20.0900   72.0861    1.1564 O.2     1  UNL1       -0.5170
     27 O          19.8420   74.4766    0.3879 O.3     1  UNL1       -0.4371
     28 O          22.0127   73.6533    1.6192 O.3     1  UNL1       -0.2865
     29 C          22.0285   72.6737    2.6592 C.3     1  UNL1        0.2611
     30 C          22.5100   73.3234    3.9576 C.3     1  UNL1        0.1582
     31 C          23.9122   73.9025    3.7384 C.3     1  UNL1        0.1625
     32 C          24.8186   72.7966    3.1874 C.3     1  UNL1        0.1686
     33 C          24.1642   72.1887    1.9451 C.3     1  UNL1        0.1760
     34 O          24.4333   74.3788    4.9806 O.3     1  UNL1       -0.3801
     35 O          26.0890   73.3496    2.8380 O.3     1  UNL1       -0.3794
     36 O          22.9073   71.6111    2.2960 O.3     1  UNL1       -0.3263
     37 H          25.3139   74.7337    4.7965 H       1  UNL1        0.2105
     38 H          26.6265   72.6213    2.4959 H       1  UNL1        0.2105
     39 C          21.2249   74.5470    5.6266 C.2     1  UNL1        0.2231
     40 C          20.2773   75.6520    6.0184 C.3     1  UNL1        0.0946
     41 N          21.5900   74.3970    4.3388 N.am    1  UNL1       -0.2994
     42 O          21.6583   73.7922    6.4708 O.2     1  UNL1       -0.2751
     43 H          21.2431   75.0008    3.6630 H       1  UNL1        0.1496
     44 C          25.0771   71.1048    1.3680 C.3     1  UNL1        0.1693
     45 O          24.9872   69.9275    2.1730 O.3     1  UNL1       -0.3794
     46 H          25.5760   69.2715    1.7762 H       1  UNL1        0.2105
@<TRIPOS>BOND
     1    29    30    1
     2    29    28    1
     3    29    36    1
     4    30    31    1
     5    30    41    1
     6    31    32    1
     7    31    34    1
     8    32    33    1
     9    32    35    1
    10    33    44    1
    11    33    36    1
    12    44    45    1
    13    39    40    1
    14    39    41   am
    15    39    42    2
    16    41    43    1
    17    28    25    1
    18    34    37    1
    19    35    38    1
    20    45    46    1
    21    15    16   ar
    22    15    20   ar
    23    15     6    1
    24    16    17   ar
    25    16    21    2
    26    17    18   ar
    27    17    23    1
    28    18    19   ar
    29    18    22    2
    30    19    20   ar
    31     6     7    1
    32     6    11    1
    33     7     8    1
    34     7     9    1
    35     8    13    1
    36     9    10    1
    37     9    12    1
    38    10    11    1
    39    10     5    1
    40    12    14    1
    41     5     4    1
    42     4     1    1
    43     1     2    2
    44     1     3    1
    45     1    24    1
    46    24    25    1
    47    25    26    2
    48    25    27    1
