@<TRIPOS>MOLECULE
UDP-glaA
 43 45 0 0 0
SMALL
GASTEIGER

@<TRIPOS>ATOM
      1 P          23.0050   71.8961   -3.3551 P.3     1  UNL1        0.2189
      2 O          23.7737   72.9521   -4.3096 O.3     1  UNL1       -0.4371
      3 O          23.6851   70.5668   -3.2052 O.2     1  UNL1       -0.5170
      4 O          21.5024   71.8535   -3.9517 O.3     1  UNL1       -0.3112
      5 C          20.6589   70.7744   -3.5867 C.3     1  UNL1        0.1811
      6 O          18.8363   71.8939   -4.6818 O.3     1  UNL1       -0.3308
      7 O          17.0913   70.7701   -2.5176 O.3     1  UNL1       -0.3794
      8 O          16.6025   69.0902   -4.6092 O.3     1  UNL1       -0.3779
      9 C          18.2217   70.1833   -3.1623 C.3     1  UNL1        0.1713
     10 C          17.8560   69.7399   -4.5630 C.3     1  UNL1        0.1895
     11 C          19.2346   71.2883   -3.4320 C.3     1  UNL1        0.1764
     12 C          17.8599   71.0560   -5.3220 C.3     1  UNL1        0.2383
     13 H          17.3827   71.0734   -1.6409 H       1  UNL1        0.2105
     14 H          16.6490   68.3218   -4.0146 H       1  UNL1        0.2106
     15 O          16.0240   70.4790   -7.3889 O.2     1  UNL1       -0.2464
     16 O          19.3480   70.4458  -10.5809 O.2     1  UNL1       -0.2670
     17 N          18.2179   70.8919   -6.7019 N.ar    1  UNL1       -0.2551
     18 N          17.6805   70.4623   -8.9769 N.ar    1  UNL1       -0.2743
     19 C          17.2195   70.6028   -7.6613 C.ar    1  UNL1        0.3323
     20 C          19.5463   71.0175   -7.0931 C.ar    1  UNL1        0.0869
     21 C          19.9699   70.8812   -8.3516 C.ar    1  UNL1        0.0795
     22 C          18.9909   70.5778   -9.4142 C.ar    1  UNL1        0.2626
     23 H          16.9803   70.2536   -9.6835 H       1  UNL1        0.1734
     24 O          22.8245   72.7197   -1.9751 O.3     1  UNL1       -0.2703
     25 P          23.1626   74.2565   -1.6057 P.3     1  UNL1        0.2208
     26 O          22.0487   75.0901   -2.4307 O.3     1  UNL1       -0.4371
     27 O          24.5797   74.6619   -1.8939 O.2     1  UNL1       -0.5170
     28 O          22.7262   74.4110   -0.0598 O.3     1  UNL1       -0.2858
     29 O          21.5267   72.4246    0.4037 O.3     1  UNL1       -0.3226
     30 O          21.6609   74.2517    4.1350 O.3     1  UNL1       -0.3794
     31 O          21.1735   75.8280    1.7301 O.3     1  UNL1       -0.3775
     32 O          20.8767   71.8016    3.1291 O.3     1  UNL1       -0.3792
     33 C          22.0933   73.8673    2.8329 C.3     1  UNL1        0.1718
     34 C          21.1302   74.4056    1.7694 C.3     1  UNL1        0.1968
     35 C          22.1515   72.3389    2.7615 C.3     1  UNL1        0.1723
     36 C          21.4889   73.8554    0.3834 C.3     1  UNL1        0.2706
     37 C          22.4749   71.9038    1.3339 C.3     1  UNL1        0.1830
     38 H          22.2969   73.8883    4.7745 H       1  UNL1        0.2105
     39 H          20.5570   76.1213    1.0382 H       1  UNL1        0.2106
     40 H          20.2545   71.9547    2.3980 H       1  UNL1        0.2106
     41 O          23.5108   69.8372    1.7342 O.co2   1  UNL1       -0.5466
     42 O          21.5035   69.8004    0.6543 O.co2   1  UNL1       -0.5466
     43 C          22.4144   70.4165    1.1882 C.2     1  UNL1        0.0799
@<TRIPOS>UNITY_ATOM_ATTR
41 1
charge -1
@<TRIPOS>BOND
     1     1     4    1
     2     1    24    1
     3     1     2    1
     4     1     3    2
     5    25    28    1
     6    25    24    1
     7    25    26    1
     8    25    27    2
     9     6    11    1
    10     6    12    1
    11    29    36    1
    12    29    37    1
    13     7     9    1
    14     7    13    1
    15     8    10    1
    16     8    14    1
    17     4     5    1
    18    28    36    1
    19    30    33    1
    20    30    38    1
    21    31    34    1
    22    31    39    1
    23    32    35    1
    24    32    40    1
    25    41    43   ar
    26    15    19    2
    27    42    43   ar
    28    16    22    2
    29    17    12    1
    30    17    19   ar
    31    17    20   ar
    32    18    19   ar
    33    18    22   ar
    34    18    23    1
    35     9    10    1
    36     9    11    1
    37    10    12    1
    38    11     5    1
    39    33    34    1
    40    33    35    1
    41    34    36    1
    42    35    37    1
    43    37    43    1
    44    20    21   ar
    45    21    22   ar
@<TRIPOS>MOLECULE
UDP-glaA
 43 45 0 0 0
SMALL
GASTEIGER

@<TRIPOS>ATOM
      1 P          21.9339   74.1885   -5.5901 P.3     1  UNL1        0.2189
      2 O          20.7491   75.1664   -5.0828 O.3     1  UNL1       -0.4371
      3 O          23.2803   74.8388   -5.7176 O.2     1  UNL1       -0.5170
      4 O          21.3416   73.5275   -6.9421 O.3     1  UNL1       -0.3112
      5 C          20.2045   74.1217   -7.5448 C.3     1  UNL1        0.1811
      6 O          19.6972   71.8439   -8.1181 O.3     1  UNL1       -0.3308
      7 O          18.0148   72.9717  -10.3293 O.3     1  UNL1       -0.3794
      8 O          16.1598   72.3368   -8.4341 O.3     1  UNL1       -0.3779
      9 C          18.2292   73.4751   -9.0108 C.3     1  UNL1        0.1713
     10 C          17.4692   72.6419   -8.0005 C.3     1  UNL1        0.1895
     11 C          19.6771   73.1945   -8.6306 C.3     1  UNL1        0.1764
     12 C          18.3479   71.4082   -7.8836 C.3     1  UNL1        0.2383
     13 H          18.5506   73.5106  -10.9359 H       1  UNL1        0.2105
     14 H          15.6992   73.1793   -8.5898 H       1  UNL1        0.2106
     15 O          16.1356   69.9273   -6.9414 O.2     1  UNL1       -0.2464
     16 O          18.1661   69.1294   -2.8820 O.2     1  UNL1       -0.2670
     17 N          18.2718   70.8019   -6.5852 N.ar    1  UNL1       -0.2551
     18 N          17.1480   69.5314   -4.9204 N.ar    1  UNL1       -0.2743
     19 C          17.1150   70.0799   -6.2092 C.ar    1  UNL1        0.3323
     20 C          19.3360   70.9259   -5.6988 C.ar    1  UNL1        0.0869
     21 C          19.3523   70.3966   -4.4735 C.ar    1  UNL1        0.0795
     22 C          18.1828   69.6281   -4.0031 C.ar    1  UNL1        0.2626
     23 H          16.3267   69.0085   -4.6284 H       1  UNL1        0.1734
     24 O          21.8734   72.9669   -4.5321 O.3     1  UNL1       -0.2703
     25 P          22.9747   72.4152   -3.4856 P.3     1  UNL1        0.2208
     26 O          24.3198   73.2064   -3.9108 O.3     1  UNL1       -0.4371
     27 O          23.1140   70.9198   -3.4693 O.2     1  UNL1       -0.5170
     28 O          22.5518   73.0608   -2.0685 O.3     1  UNL1       -0.2858
     29 O          21.6976   71.3339   -0.6945 O.3     1  UNL1       -0.3226
     30 O          21.2983   74.6712    1.7515 O.3     1  UNL1       -0.3794
     31 O          20.6757   74.8360   -1.0930 O.3     1  UNL1       -0.3775
     32 O          21.0163   71.9373    2.0277 O.3     1  UNL1       -0.3792
     33 C          21.8639   73.8134    0.7642 C.3     1  UNL1        0.1718
     34 C          20.8820   73.6124   -0.3950 C.3     1  UNL1        0.1968
     35 C          22.1948   72.4653    1.4102 C.3     1  UNL1        0.1723
     36 C          21.4091   72.5587   -1.3769 C.3     1  UNL1        0.2706
     37 C          22.6693   71.4856    0.3391 C.3     1  UNL1        0.1830
     38 H          21.9517   74.7678    2.4652 H       1  UNL1        0.2105
     39 H          20.0568   74.6577   -1.8210 H       1  UNL1        0.2106
     40 H          20.4187   71.6182    1.3304 H       1  UNL1        0.2106
     41 O          22.3227   69.1774    0.1033 O.co2   1  UNL1       -0.5466
     42 O          23.4760   69.8713    1.9432 O.co2   1  UNL1       -0.5466
     43 C          22.8805   70.1170    0.9043 C.2     1  UNL1        0.0799
@<TRIPOS>UNITY_ATOM_ATTR
41 1
charge -1
@<TRIPOS>BOND
     1     1     4    1
     2     1    24    1
     3     1     2    1
     4     1     3    2
     5    25    28    1
     6    25    24    1
     7    25    26    1
     8    25    27    2
     9     6    11    1
    10     6    12    1
    11    29    36    1
    12    29    37    1
    13     7     9    1
    14     7    13    1
    15     8    10    1
    16     8    14    1
    17     4     5    1
    18    28    36    1
    19    30    33    1
    20    30    38    1
    21    31    34    1
    22    31    39    1
    23    32    35    1
    24    32    40    1
    25    41    43   ar
    26    15    19    2
    27    42    43   ar
    28    16    22    2
    29    17    12    1
    30    17    19   ar
    31    17    20   ar
    32    18    19   ar
    33    18    22   ar
    34    18    23    1
    35     9    10    1
    36     9    11    1
    37    10    12    1
    38    11     5    1
    39    33    34    1
    40    33    35    1
    41    34    36    1
    42    35    37    1
    43    37    43    1
    44    20    21   ar
    45    21    22   ar
@<TRIPOS>MOLECULE
UDP-glaA
 43 45 0 0 0
SMALL
GASTEIGER

@<TRIPOS>ATOM
      1 P          22.6717   71.4950   -2.6856 P.3     1  UNL1        0.2189
      2 O          22.9948   72.9629   -3.2841 O.3     1  UNL1       -0.4371
      3 O          23.5418   70.3913   -3.2118 O.2     1  UNL1       -0.5170
      4 O          21.0832   71.3153   -2.9305 O.3     1  UNL1       -0.3112
      5 C          20.4147   72.2533   -3.7565 C.3     1  UNL1        0.1811
      6 O          18.2680   72.2965   -4.8354 O.3     1  UNL1       -0.3308
      7 O          17.2361   70.8409   -2.4255 O.3     1  UNL1       -0.3794
      8 O          17.5106   68.8399   -4.2575 O.3     1  UNL1       -0.3779
      9 C          18.4994   70.7229   -3.0796 C.3     1  UNL1        0.1713
     10 C          18.3465   69.9714   -4.3852 C.3     1  UNL1        0.1895
     11 C          18.9128   72.1091   -3.5562 C.3     1  UNL1        0.1764
     12 C          17.7546   71.0351   -5.2943 C.3     1  UNL1        0.2383
     13 H          17.3763   71.3614   -1.6162 H       1  UNL1        0.2105
     14 H          17.9023   68.2615   -3.5806 H       1  UNL1        0.2106
     15 O          15.9285   70.5274   -7.3879 O.2     1  UNL1       -0.2464
     16 O          19.2972   70.3440  -10.5274 O.2     1  UNL1       -0.2670
     17 N          18.1268   70.8511   -6.6680 N.ar    1  UNL1       -0.2551
     18 N          17.6073   70.4359   -8.9498 N.ar    1  UNL1       -0.2743
     19 C          17.1322   70.6003   -7.6419 C.ar    1  UNL1        0.3323
     20 C          19.4652   70.9198   -7.0387 C.ar    1  UNL1        0.0869
     21 C          19.9021   70.7613   -8.2900 C.ar    1  UNL1        0.0795
     22 C          18.9280   70.4950   -9.3669 C.ar    1  UNL1        0.2626
     23 H          16.9100   70.2539   -9.6665 H       1  UNL1        0.1734
     24 O          22.7689   71.7257   -1.0879 O.3     1  UNL1       -0.2703
     25 P          22.4642   70.7292    0.1477 P.3     1  UNL1        0.2208
     26 O          23.7364   69.7304    0.1414 O.3     1  UNL1       -0.4371
     27 O          21.1331   70.0382    0.0679 O.2     1  UNL1       -0.5170
     28 O          22.6654   71.6385    1.4656 O.3     1  UNL1       -0.2858
     29 O          21.8504   72.3911    3.5558 O.3     1  UNL1       -0.3226
     30 O          21.1640   75.6858    1.1158 O.3     1  UNL1       -0.3794
     31 O          20.6544   72.9859    0.1377 O.3     1  UNL1       -0.3775
     32 O          21.0220   75.1268    3.8172 O.3     1  UNL1       -0.3792
     33 C          21.8175   74.5232    1.6177 C.3     1  UNL1        0.1718
     34 C          20.8982   73.3024    1.5041 C.3     1  UNL1        0.1968
     35 C          22.1947   74.7606    3.0825 C.3     1  UNL1        0.1723
     36 C          21.5239   72.0850    2.1961 C.3     1  UNL1        0.2706
     37 C          22.7676   73.4770    3.6794 C.3     1  UNL1        0.1830
     38 H          21.7802   76.4321    1.2096 H       1  UNL1        0.2105
     39 H          20.0777   72.2037    0.1161 H       1  UNL1        0.2106
     40 H          20.4731   74.3335    3.9382 H       1  UNL1        0.2106
     41 O          24.2370   74.2012    5.3587 O.co2   1  UNL1       -0.5466
     42 O          22.2646   73.2776    6.0325 O.co2   1  UNL1       -0.5466
     43 C          23.0299   73.6243    5.1445 C.2     1  UNL1        0.0799
@<TRIPOS>UNITY_ATOM_ATTR
41 1
charge -1
@<TRIPOS>BOND
     1     1     4    1
     2     1    24    1
     3     1     2    1
     4     1     3    2
     5    25    28    1
     6    25    24    1
     7    25    26    1
     8    25    27    2
     9     6    11    1
    10     6    12    1
    11    29    36    1
    12    29    37    1
    13     7     9    1
    14     7    13    1
    15     8    10    1
    16     8    14    1
    17     4     5    1
    18    28    36    1
    19    30    33    1
    20    30    38    1
    21    31    34    1
    22    31    39    1
    23    32    35    1
    24    32    40    1
    25    41    43   ar
    26    15    19    2
    27    42    43   ar
    28    16    22    2
    29    17    12    1
    30    17    19   ar
    31    17    20   ar
    32    18    19   ar
    33    18    22   ar
    34    18    23    1
    35     9    10    1
    36     9    11    1
    37    10    12    1
    38    11     5    1
    39    33    34    1
    40    33    35    1
    41    34    36    1
    42    35    37    1
    43    37    43    1
    44    20    21   ar
    45    21    22   ar
@<TRIPOS>MOLECULE
UDP-glaA
 43 45 0 0 0
SMALL
GASTEIGER

@<TRIPOS>ATOM
      1 P          21.5819   70.3658   -1.0131 P.3     1  UNL1        0.2189
      2 O          23.1135   70.6011   -1.4783 O.3     1  UNL1       -0.4371
      3 O          21.4185   69.5609    0.2429 O.2     1  UNL1       -0.5170
      4 O          20.8621   69.7658   -2.3312 O.3     1  UNL1       -0.3112
      5 C          20.6246   70.6326   -3.4273 C.3     1  UNL1        0.1811
      6 O          18.8893   71.8533   -4.5555 O.3     1  UNL1       -0.3308
      7 O          17.0379   70.8098   -2.4402 O.3     1  UNL1       -0.3794
      8 O          16.5102   69.1709   -4.5547 O.3     1  UNL1       -0.3779
      9 C          18.1506   70.1682   -3.0631 C.3     1  UNL1        0.1713
     10 C          17.7947   69.7533   -4.4751 C.3     1  UNL1        0.1895
     11 C          19.2261   71.2199   -3.3015 C.3     1  UNL1        0.1764
     12 C          17.8854   71.0720   -5.2240 C.3     1  UNL1        0.2383
     13 H          17.3244   71.0919   -1.5548 H       1  UNL1        0.2105
     14 H          16.5024   68.3974   -3.9649 H       1  UNL1        0.2106
     15 O          16.0840   70.4796   -7.3168 O.2     1  UNL1       -0.2464
     16 O          19.4605   70.4233  -10.4529 O.2     1  UNL1       -0.2670
     17 N          18.2662   70.8979   -6.5966 N.ar    1  UNL1       -0.2551
     18 N          17.7666   70.4514   -8.8769 N.ar    1  UNL1       -0.2743
     19 C          17.2838   70.6015   -7.5702 C.ar    1  UNL1        0.3323
     20 C          19.6009   71.0207   -6.9666 C.ar    1  UNL1        0.0869
     21 C          20.0453   70.8752   -8.2168 C.ar    1  UNL1        0.0795
     22 C          19.0841   70.5639   -9.2933 C.ar    1  UNL1        0.2626
     23 H          17.0782   70.2374   -9.5935 H       1  UNL1        0.1734
     24 O          20.9932   71.8697   -0.9306 O.3     1  UNL1       -0.2703
     25 P          21.4723   73.1500   -0.0681 P.3     1  UNL1        0.2208
     26 O          22.7983   72.6137    0.6870 O.3     1  UNL1       -0.4371
     27 O          20.4190   73.7049    0.8475 O.2     1  UNL1       -0.5170
     28 O          22.0225   74.1988   -1.1642 O.3     1  UNL1       -0.2858
     29 O          22.9150   73.4506   -3.2241 O.3     1  UNL1       -0.3226
     30 O          24.4585   77.3007   -2.9532 O.3     1  UNL1       -0.3794
     31 O          24.3450   75.5810   -0.6004 O.3     1  UNL1       -0.3775
     32 O          24.3621   75.3089   -4.8645 O.3     1  UNL1       -0.3792
     33 C          23.5282   76.2332   -2.7945 C.3     1  UNL1        0.1718
     34 C          24.1331   75.1211   -1.9309 C.3     1  UNL1        0.1968
     35 C          23.1642   75.6839   -4.1766 C.3     1  UNL1        0.1723
     36 C          23.2095   73.8971   -1.8963 C.3     1  UNL1        0.2706
     37 C          22.2796   74.4488   -4.0213 C.3     1  UNL1        0.1830
     38 H          24.0353   77.9788   -3.5069 H       1  UNL1        0.2105
     39 H          24.7187   74.8425   -0.0907 H       1  UNL1        0.2106
     40 H          24.7009   74.4876   -4.4696 H       1  UNL1        0.2106
     41 O          22.8744   72.7876   -5.5673 O.co2   1  UNL1       -0.5466
     42 O          21.1197   74.1357   -6.1156 O.co2   1  UNL1       -0.5466
     43 C          22.0056   73.8024   -5.3419 C.2     1  UNL1        0.0799
@<TRIPOS>UNITY_ATOM_ATTR
41 1
charge -1
@<TRIPOS>BOND
     1     1     4    1
     2     1    24    1
     3     1     2    1
     4     1     3    2
     5    25    28    1
     6    25    24    1
     7    25    26    1
     8    25    27    2
     9     6    11    1
    10     6    12    1
    11    29    36    1
    12    29    37    1
    13     7     9    1
    14     7    13    1
    15     8    10    1
    16     8    14    1
    17     4     5    1
    18    28    36    1
    19    30    33    1
    20    30    38    1
    21    31    34    1
    22    31    39    1
    23    32    35    1
    24    32    40    1
    25    41    43   ar
    26    15    19    2
    27    42    43   ar
    28    16    22    2
    29    17    12    1
    30    17    19   ar
    31    17    20   ar
    32    18    19   ar
    33    18    22   ar
    34    18    23    1
    35     9    10    1
    36     9    11    1
    37    10    12    1
    38    11     5    1
    39    33    34    1
    40    33    35    1
    41    34    36    1
    42    35    37    1
    43    37    43    1
    44    20    21   ar
    45    21    22   ar
@<TRIPOS>MOLECULE
UDP-glaA
 43 45 0 0 0
SMALL
GASTEIGER

@<TRIPOS>ATOM
      1 P          21.6467   70.3391   -1.0564 P.3     1  UNL1        0.2189
      2 O          23.1148   70.8147   -1.5419 O.3     1  UNL1       -0.4371
      3 O          21.6248   69.5667    0.2301 O.2     1  UNL1       -0.5170
      4 O          21.0385   69.5750   -2.3455 O.3     1  UNL1       -0.3112
      5 C          20.7247   70.3368   -3.4989 C.3     1  UNL1        0.1811
      6 O          19.0155   71.6712   -4.5345 O.3     1  UNL1       -0.3308
      7 O          17.1670   70.6017   -2.4296 O.3     1  UNL1       -0.3794
      8 O          16.5366   69.0816   -4.6039 O.3     1  UNL1       -0.3779
      9 C          18.2423   69.9484   -3.1039 C.3     1  UNL1        0.1713
     10 C          17.8436   69.6118   -4.5253 C.3     1  UNL1        0.1895
     11 C          19.3522   70.9693   -3.3175 C.3     1  UNL1        0.1764
     12 C          17.9698   70.9590   -5.2161 C.3     1  UNL1        0.2383
     13 H          17.4811   70.8324   -1.5387 H       1  UNL1        0.2105
     14 H          16.5109   68.2829   -4.0493 H       1  UNL1        0.2106
     15 O          16.1159   70.4549   -7.2859 O.2     1  UNL1       -0.2464
     16 O          19.4173   70.4953  -10.5012 O.2     1  UNL1       -0.2670
     17 N          18.3171   70.8336   -6.6028 N.ar    1  UNL1       -0.2551
     18 N          17.7612   70.4748   -8.8856 N.ar    1  UNL1       -0.2743
     19 C          17.3102   70.5792   -7.5631 C.ar    1  UNL1        0.3323
     20 C          19.6436   70.9623   -6.9995 C.ar    1  UNL1        0.0869
     21 C          20.0575   70.8606   -8.2645 C.ar    1  UNL1        0.0795
     22 C          19.0692   70.5949   -9.3286 C.ar    1  UNL1        0.2626
     23 H          17.0547   70.2915   -9.5930 H       1  UNL1        0.1734
     24 O          20.8095   71.7224   -1.0258 O.3     1  UNL1       -0.2703
     25 P          21.2598   73.2259   -0.6396 P.3     1  UNL1        0.2208
     26 O          19.9258   74.0964   -0.9202 O.3     1  UNL1       -0.4371
     27 O          22.4805   73.7097   -1.3687 O.2     1  UNL1       -0.5170
     28 O          21.4060   73.2090    0.9673 O.3     1  UNL1       -0.2858
     29 O          23.2090   74.4901    1.8082 O.3     1  UNL1       -0.3226
     30 O          21.9830   72.3929    5.1813 O.3     1  UNL1       -0.3794
     31 O          22.0995   71.0784    2.5805 O.3     1  UNL1       -0.3775
     32 O          23.7418   74.4498    4.6283 O.3     1  UNL1       -0.3792
     33 C          21.8747   73.0813    3.9385 C.3     1  UNL1        0.1718
     34 C          22.6733   72.3526    2.8524 C.3     1  UNL1        0.1968
     35 C          22.4074   74.5061    4.1135 C.3     1  UNL1        0.1723
     36 C          22.7046   73.1742    1.5577 C.3     1  UNL1        0.2706
     37 C          22.4322   75.2145    2.7608 C.3     1  UNL1        0.1830
     38 H          21.4656   72.8896    5.8379 H       1  UNL1        0.2105
     39 H          22.6314   70.6600    1.8826 H       1  UNL1        0.2106
     40 H          24.3363   74.1621    3.9149 H       1  UNL1        0.2106
     41 O          24.4175   76.4609    2.8539 O.co2   1  UNL1       -0.5466
     42 O          22.4576   77.6223    2.9384 O.co2   1  UNL1       -0.5466
     43 C          23.0666   76.5651    2.8619 C.2     1  UNL1        0.0799
@<TRIPOS>UNITY_ATOM_ATTR
41 1
charge -1
@<TRIPOS>BOND
     1     1     4    1
     2     1    24    1
     3     1     2    1
     4     1     3    2
     5    25    28    1
     6    25    24    1
     7    25    26    1
     8    25    27    2
     9     6    11    1
    10     6    12    1
    11    29    36    1
    12    29    37    1
    13     7     9    1
    14     7    13    1
    15     8    10    1
    16     8    14    1
    17     4     5    1
    18    28    36    1
    19    30    33    1
    20    30    38    1
    21    31    34    1
    22    31    39    1
    23    32    35    1
    24    32    40    1
    25    41    43   ar
    26    15    19    2
    27    42    43   ar
    28    16    22    2
    29    17    12    1
    30    17    19   ar
    31    17    20   ar
    32    18    19   ar
    33    18    22   ar
    34    18    23    1
    35     9    10    1
    36     9    11    1
    37    10    12    1
    38    11     5    1
    39    33    34    1
    40    33    35    1
    41    34    36    1
    42    35    37    1
    43    37    43    1
    44    20    21   ar
    45    21    22   ar
@<TRIPOS>MOLECULE
UDP-glaA
 43 45 0 0 0
SMALL
GASTEIGER

@<TRIPOS>ATOM
      1 P          22.2926   71.0380   -2.4911 P.3     1  UNL1        0.2189
      2 O          23.4436   71.7897   -3.3440 O.3     1  UNL1       -0.4371
      3 O          21.9345   69.6661   -2.9828 O.2     1  UNL1       -0.5170
      4 O          21.0800   72.1072   -2.4459 O.3     1  UNL1       -0.3112
      5 C          20.4356   72.4524   -3.6604 C.3     1  UNL1        0.1811
      6 O          18.3005   72.5079   -4.7614 O.3     1  UNL1       -0.3308
      7 O          17.2171   71.1398   -2.3230 O.3     1  UNL1       -0.3794
      8 O          17.4691   69.0840   -4.0967 O.3     1  UNL1       -0.3779
      9 C          18.4839   70.9790   -2.9610 C.3     1  UNL1        0.1713
     10 C          18.3285   70.1950   -4.2470 C.3     1  UNL1        0.1895
     11 C          18.9293   72.3432   -3.4712 C.3     1  UNL1        0.1764
     12 C          17.7665   71.2446   -5.1907 C.3     1  UNL1        0.2383
     13 H          17.3600   71.6796   -1.5269 H       1  UNL1        0.2105
     14 H          17.8428   68.5170   -3.4003 H       1  UNL1        0.2106
     15 O          16.0219   70.2919   -7.1967 O.2     1  UNL1       -0.2464
     16 O          19.3411   70.4015  -10.3919 O.2     1  UNL1       -0.2670
     17 N          18.1479   71.0156   -6.5550 N.ar    1  UNL1       -0.2551
     18 N          17.6760   70.3466   -8.7863 N.ar    1  UNL1       -0.2743
     19 C          17.1954   70.5349   -7.4838 C.ar    1  UNL1        0.3323
     20 C          19.4538   71.2668   -6.9612 C.ar    1  UNL1        0.0869
     21 C          19.8964   71.0827   -8.2070 C.ar    1  UNL1        0.0795
     22 C          18.9655   70.5820   -9.2376 C.ar    1  UNL1        0.2626
     23 H          17.0089   70.0010   -9.4708 H       1  UNL1        0.1734
     24 O          22.8724   71.0826   -0.9821 O.3     1  UNL1       -0.2703
     25 P          22.3469   70.3826    0.3767 P.3     1  UNL1        0.2208
     26 O          23.7081   70.1230    1.2108 O.3     1  UNL1       -0.4371
     27 O          21.5125   69.1538    0.1538 O.2     1  UNL1       -0.5170
     28 O          21.5944   71.5626    1.1800 O.3     1  UNL1       -0.2858
     29 O          22.9493   73.4812    0.8931 O.3     1  UNL1       -0.3226
     30 O          19.7352   74.9991    3.0484 O.3     1  UNL1       -0.3794
     31 O          20.8642   72.3926    3.7100 O.3     1  UNL1       -0.3775
     32 O          21.9409   76.0303    1.7440 O.3     1  UNL1       -0.3792
     33 C          20.4359   74.1783    2.1180 C.3     1  UNL1        0.1718
     34 C          21.4888   73.3307    2.8401 C.3     1  UNL1        0.1968
     35 C          21.1100   75.0751    1.0760 C.3     1  UNL1        0.1723
     36 C          22.3619   72.5739    1.8315 C.3     1  UNL1        0.2706
     37 C          21.9817   74.2251    0.1542 C.3     1  UNL1        0.1830
     38 H          19.0827   75.5183    2.5483 H       1  UNL1        0.2105
     39 H          21.5675   71.8743    4.1362 H       1  UNL1        0.2106
     40 H          22.7336   75.5736    2.0729 H       1  UNL1        0.2106
     41 O          23.4303   76.0478   -0.1346 O.co2   1  UNL1       -0.5466
     42 O          22.7975   74.9173   -2.0103 O.co2   1  UNL1       -0.5466
     43 C          22.7612   75.0746   -0.7986 C.2     1  UNL1        0.0799
@<TRIPOS>UNITY_ATOM_ATTR
41 1
charge -1
@<TRIPOS>BOND
     1     1     4    1
     2     1    24    1
     3     1     2    1
     4     1     3    2
     5    25    28    1
     6    25    24    1
     7    25    26    1
     8    25    27    2
     9     6    11    1
    10     6    12    1
    11    29    36    1
    12    29    37    1
    13     7     9    1
    14     7    13    1
    15     8    10    1
    16     8    14    1
    17     4     5    1
    18    28    36    1
    19    30    33    1
    20    30    38    1
    21    31    34    1
    22    31    39    1
    23    32    35    1
    24    32    40    1
    25    41    43   ar
    26    15    19    2
    27    42    43   ar
    28    16    22    2
    29    17    12    1
    30    17    19   ar
    31    17    20   ar
    32    18    19   ar
    33    18    22   ar
    34    18    23    1
    35     9    10    1
    36     9    11    1
    37    10    12    1
    38    11     5    1
    39    33    34    1
    40    33    35    1
    41    34    36    1
    42    35    37    1
    43    37    43    1
    44    20    21   ar
    45    21    22   ar
@<TRIPOS>MOLECULE
UDP-glaA
 43 45 0 0 0
SMALL
GASTEIGER

@<TRIPOS>ATOM
      1 P          21.6728   70.3299   -1.0329 P.3     1  UNL1        0.2189
      2 O          23.1857   70.6602   -1.5013 O.3     1  UNL1       -0.4371
      3 O          21.5618   69.5479    0.2431 O.2     1  UNL1       -0.5170
      4 O          21.0016   69.6473   -2.3363 O.3     1  UNL1       -0.3112
      5 C          20.7287   70.4626   -3.4633 C.3     1  UNL1        0.1811
      6 O          19.0107   71.7557   -4.5359 O.3     1  UNL1       -0.3308
      7 O          17.1695   70.7342   -2.4010 O.3     1  UNL1       -0.3794
      8 O          16.5490   69.1489   -4.5311 O.3     1  UNL1       -0.3779
      9 C          18.2490   70.0691   -3.0568 C.3     1  UNL1        0.1713
     10 C          17.8524   69.6897   -4.4679 C.3     1  UNL1        0.1895
     11 C          19.3521   71.0909   -3.2996 C.3     1  UNL1        0.1764
     12 C          17.9697   71.0175   -5.1968 C.3     1  UNL1        0.2383
     13 H          17.4822   70.9922   -1.5171 H       1  UNL1        0.2105
     14 H          16.5286   68.3661   -3.9541 H       1  UNL1        0.2106
     15 O          16.1205   70.4321   -7.2494 O.2     1  UNL1       -0.2464
     16 O          19.4197   70.4139  -10.4670 O.2     1  UNL1       -0.2670
     17 N          18.3177   70.8550   -6.5794 N.ar    1  UNL1       -0.2551
     18 N          17.7647   70.4229   -8.8502 N.ar    1  UNL1       -0.2743
     19 C          17.3132   70.5613   -7.5310 C.ar    1  UNL1        0.3323
     20 C          19.6425   70.9866   -6.9809 C.ar    1  UNL1        0.0869
     21 C          20.0569   70.8522   -8.2426 C.ar    1  UNL1        0.0795
     22 C          19.0711   70.5443   -9.2976 C.ar    1  UNL1        0.2626
     23 H          17.0599   70.2110   -9.5513 H       1  UNL1        0.1734
     24 O          20.9797   71.7904   -0.9903 O.3     1  UNL1       -0.2703
     25 P          21.5288   73.2091   -0.4440 P.3     1  UNL1        0.2208
     26 O          20.3906   74.2554   -0.9192 O.3     1  UNL1       -0.4371
     27 O          22.9167   73.5512   -0.9049 O.2     1  UNL1       -0.5170
     28 O          21.3609   73.1229    1.1586 O.3     1  UNL1       -0.2858
     29 O          20.5941   75.1043    2.2004 O.3     1  UNL1       -0.3226
     30 O          21.7713   72.8067    5.4584 O.3     1  UNL1       -0.3794
     31 O          23.3783   72.8603    3.0252 O.3     1  UNL1       -0.3775
     32 O          20.4360   75.1925    5.0650 O.3     1  UNL1       -0.3792
     33 C          21.2465   73.1017    4.1670 C.3     1  UNL1        0.1718
     34 C          22.3157   73.7686    3.2951 C.3     1  UNL1        0.1968
     35 C          20.0417   74.0337    4.3231 C.3     1  UNL1        0.1723
     36 C          21.7144   74.2445    1.9668 C.3     1  UNL1        0.2706
     37 C          19.5525   74.4752    2.9454 C.3     1  UNL1        0.1830
     38 H          21.0613   72.3892    5.9753 H       1  UNL1        0.2105
     39 H          24.0239   73.3223    2.4644 H       1  UNL1        0.2106
     40 H          20.9794   75.7574    4.4899 H       1  UNL1        0.2106
     41 O          18.9720   76.7347    3.1927 O.co2   1  UNL1       -0.5466
     42 O          17.2624   75.2370    3.0157 O.co2   1  UNL1       -0.5466
     43 C          18.4581   75.4890    3.0524 C.2     1  UNL1        0.0799
@<TRIPOS>UNITY_ATOM_ATTR
41 1
charge -1
@<TRIPOS>BOND
     1     1     4    1
     2     1    24    1
     3     1     2    1
     4     1     3    2
     5    25    28    1
     6    25    24    1
     7    25    26    1
     8    25    27    2
     9     6    11    1
    10     6    12    1
    11    29    36    1
    12    29    37    1
    13     7     9    1
    14     7    13    1
    15     8    10    1
    16     8    14    1
    17     4     5    1
    18    28    36    1
    19    30    33    1
    20    30    38    1
    21    31    34    1
    22    31    39    1
    23    32    35    1
    24    32    40    1
    25    41    43   ar
    26    15    19    2
    27    42    43   ar
    28    16    22    2
    29    17    12    1
    30    17    19   ar
    31    17    20   ar
    32    18    19   ar
    33    18    22   ar
    34    18    23    1
    35     9    10    1
    36     9    11    1
    37    10    12    1
    38    11     5    1
    39    33    34    1
    40    33    35    1
    41    34    36    1
    42    35    37    1
    43    37    43    1
    44    20    21   ar
    45    21    22   ar
@<TRIPOS>MOLECULE
UDP-glaA
 43 45 0 0 0
SMALL
GASTEIGER

@<TRIPOS>ATOM
      1 P          21.8021   70.2357   -1.1087 P.3     1  UNL1        0.2189
      2 O          23.0591   70.9107   -1.8716 O.3     1  UNL1       -0.4371
      3 O          22.1650   69.2027   -0.0824 O.2     1  UNL1       -0.5170
      4 O          20.8447   69.7279   -2.3091 O.3     1  UNL1       -0.3112
      5 C          20.6246   70.5913   -3.4115 C.3     1  UNL1        0.1811
      6 O          18.9206   71.8564   -4.5385 O.3     1  UNL1       -0.3308
      7 O          17.0461   70.8674   -2.4173 O.3     1  UNL1       -0.3794
      8 O          16.4697   69.2394   -4.5276 O.3     1  UNL1       -0.3779
      9 C          18.1397   70.1947   -3.0413 C.3     1  UNL1        0.1713
     10 C          17.7696   69.7870   -4.4517 C.3     1  UNL1        0.1895
     11 C          19.2428   71.2165   -3.2839 C.3     1  UNL1        0.1764
     12 C          17.8944   71.1014   -5.2034 C.3     1  UNL1        0.2383
     13 H          17.3421   71.1433   -1.5330 H       1  UNL1        0.2105
     14 H          16.4423   68.4676   -3.9362 H       1  UNL1        0.2106
     15 O          16.0794   70.5027   -7.2825 O.2     1  UNL1       -0.2464
     16 O          19.4399   70.4032  -10.4347 O.2     1  UNL1       -0.2670
     17 N          18.2674   70.9144   -6.5764 N.ar    1  UNL1       -0.2551
     18 N          17.7541   70.4530   -8.8507 N.ar    1  UNL1       -0.2743
     19 C          17.2786   70.6160   -7.5428 C.ar    1  UNL1        0.3323
     20 C          19.6009   71.0269   -6.9539 C.ar    1  UNL1        0.0869
     21 C          20.0383   70.8692   -8.2052 C.ar    1  UNL1        0.0795
     22 C          19.0701   70.5548   -9.2744 C.ar    1  UNL1        0.2626
     23 H          17.0609   70.2373   -9.5621 H       1  UNL1        0.1734
     24 O          21.0039   71.5147   -0.5239 O.3     1  UNL1       -0.2703
     25 P          21.3229   72.4797    0.7330 P.3     1  UNL1        0.2208
     26 O          22.8626   72.9104    0.4886 O.3     1  UNL1       -0.4371
     27 O          21.0593   71.8537    2.0726 O.2     1  UNL1       -0.5170
     28 O          20.4729   73.8208    0.4449 O.3     1  UNL1       -0.2858
     29 O          18.3894   74.5730   -0.3874 O.3     1  UNL1       -0.3226
     30 O          21.0831   76.6551   -2.7724 O.3     1  UNL1       -0.3794
     31 O          21.5595   73.8592   -2.0929 O.3     1  UNL1       -0.3775
     32 O          18.3546   76.6741   -2.3426 O.3     1  UNL1       -0.3792
     33 C          20.5612   76.0213   -1.6079 C.3     1  UNL1        0.1718
     34 C          20.3237   74.5305   -1.8718 C.3     1  UNL1        0.1968
     35 C          19.2447   76.7012   -1.2219 C.3     1  UNL1        0.1723
     36 C          19.6041   73.8767   -0.6856 C.3     1  UNL1        0.2706
     37 C          18.5980   75.9465   -0.0624 C.3     1  UNL1        0.1830
     38 H          21.2152   77.5949   -2.5606 H       1  UNL1        0.2105
     39 H          21.3600   72.9201   -2.2455 H       1  UNL1        0.2106
     40 H          18.0205   75.7674   -2.4498 H       1  UNL1        0.2106
     41 O          17.2470   77.8499    0.1734 O.co2   1  UNL1       -0.5466
     42 O          16.2700   75.8282    0.5671 O.co2   1  UNL1       -0.5466
     43 C          17.2465   76.4981    0.2635 C.2     1  UNL1        0.0799
@<TRIPOS>UNITY_ATOM_ATTR
41 1
charge -1
@<TRIPOS>BOND
     1     1     4    1
     2     1    24    1
     3     1     2    1
     4     1     3    2
     5    25    28    1
     6    25    24    1
     7    25    26    1
     8    25    27    2
     9     6    11    1
    10     6    12    1
    11    29    36    1
    12    29    37    1
    13     7     9    1
    14     7    13    1
    15     8    10    1
    16     8    14    1
    17     4     5    1
    18    28    36    1
    19    30    33    1
    20    30    38    1
    21    31    34    1
    22    31    39    1
    23    32    35    1
    24    32    40    1
    25    41    43   ar
    26    15    19    2
    27    42    43   ar
    28    16    22    2
    29    17    12    1
    30    17    19   ar
    31    17    20   ar
    32    18    19   ar
    33    18    22   ar
    34    18    23    1
    35     9    10    1
    36     9    11    1
    37    10    12    1
    38    11     5    1
    39    33    34    1
    40    33    35    1
    41    34    36    1
    42    35    37    1
    43    37    43    1
    44    20    21   ar
    45    21    22   ar
@<TRIPOS>MOLECULE
UDP-glaA
 43 45 0 0 0
SMALL
GASTEIGER

@<TRIPOS>ATOM
      1 P          21.6969   70.3076   -1.0598 P.3     1  UNL1        0.2189
      2 O          23.2328   70.5423   -1.5107 O.3     1  UNL1       -0.4371
      3 O          21.5229   69.5554    0.2271 O.2     1  UNL1       -0.5170
      4 O          21.0058   69.6423   -2.3618 O.3     1  UNL1       -0.3112
      5 C          20.7314   70.4690   -3.4801 C.3     1  UNL1        0.1811
      6 O          19.0027   71.7522   -4.5474 O.3     1  UNL1       -0.3308
      7 O          17.1728   70.7159   -2.4099 O.3     1  UNL1       -0.3794
      8 O          16.5581   69.1293   -4.5407 O.3     1  UNL1       -0.3779
      9 C          18.2552   70.0588   -3.0688 C.3     1  UNL1        0.1713
     10 C          17.8581   69.6786   -4.4796 C.3     1  UNL1        0.1895
     11 C          19.3510   71.0880   -3.3126 C.3     1  UNL1        0.1764
     12 C          17.9651   71.0080   -5.2069 C.3     1  UNL1        0.2383
     13 H          17.4856   70.9747   -1.5263 H       1  UNL1        0.2105
     14 H          16.5441   68.3456   -3.9647 H       1  UNL1        0.2106
     15 O          16.1096   70.4540   -7.2625 O.2     1  UNL1       -0.2464
     16 O          19.4081   70.4188  -10.4807 O.2     1  UNL1       -0.2670
     17 N          18.3113   70.8497   -6.5906 N.ar    1  UNL1       -0.2551
     18 N          17.7534   70.4363   -8.8636 N.ar    1  UNL1       -0.2743
     19 C          17.3036   70.5721   -7.5436 C.ar    1  UNL1        0.3323
     20 C          19.6373   70.9694   -6.9914 C.ar    1  UNL1        0.0869
     21 C          20.0501   70.8377   -8.2540 C.ar    1  UNL1        0.0795
     22 C          19.0611   70.5463   -9.3106 C.ar    1  UNL1        0.2626
     23 H          17.0464   70.2359   -9.5658 H       1  UNL1        0.1734
     24 O          21.0887   71.8060   -1.0516 O.3     1  UNL1       -0.2703
     25 P          21.6951   73.1934   -0.4858 P.3     1  UNL1        0.2208
     26 O          22.5635   72.7236    0.7953 O.3     1  UNL1       -0.4371
     27 O          20.6609   74.2398   -0.1838 O.2     1  UNL1       -0.5170
     28 O          22.7924   73.6375   -1.5825 O.3     1  UNL1       -0.2858
     29 O          23.7273   75.6766   -0.8294 O.3     1  UNL1       -0.3226
     30 O          25.8303   75.0023   -4.3510 O.3     1  UNL1       -0.3794
     31 O          22.9667   74.4677   -4.2098 O.3     1  UNL1       -0.3775
     32 O          25.9739   76.7755   -2.2379 O.3     1  UNL1       -0.3792
     33 C          25.1384   74.6977   -3.1432 C.3     1  UNL1        0.1718
     34 C          23.6893   75.1904   -3.2187 C.3     1  UNL1        0.1968
     35 C          25.8612   75.3730   -1.9745 C.3     1  UNL1        0.1723
     36 C          22.9873   75.0224   -1.8654 C.3     1  UNL1        0.2706
     37 C          25.0566   75.1771   -0.6914 C.3     1  UNL1        0.1830
     38 H          26.7413   74.6754   -4.2576 H       1  UNL1        0.2105
     39 H          22.0557   74.8067   -4.2144 H       1  UNL1        0.2106
     40 H          25.0994   77.1833   -2.1192 H       1  UNL1        0.2106
     41 O          24.9776   77.0791    0.6797 O.co2   1  UNL1       -0.5466
     42 O          26.6288   75.5645    1.0996 O.co2   1  UNL1       -0.5466
     43 C          25.6585   75.9301    0.4522 C.2     1  UNL1        0.0799
@<TRIPOS>UNITY_ATOM_ATTR
41 1
charge -1
@<TRIPOS>BOND
     1     1     4    1
     2     1    24    1
     3     1     2    1
     4     1     3    2
     5    25    28    1
     6    25    24    1
     7    25    26    1
     8    25    27    2
     9     6    11    1
    10     6    12    1
    11    29    36    1
    12    29    37    1
    13     7     9    1
    14     7    13    1
    15     8    10    1
    16     8    14    1
    17     4     5    1
    18    28    36    1
    19    30    33    1
    20    30    38    1
    21    31    34    1
    22    31    39    1
    23    32    35    1
    24    32    40    1
    25    41    43   ar
    26    15    19    2
    27    42    43   ar
    28    16    22    2
    29    17    12    1
    30    17    19   ar
    31    17    20   ar
    32    18    19   ar
    33    18    22   ar
    34    18    23    1
    35     9    10    1
    36     9    11    1
    37    10    12    1
    38    11     5    1
    39    33    34    1
    40    33    35    1
    41    34    36    1
    42    35    37    1
    43    37    43    1
    44    20    21   ar
    45    21    22   ar
@<TRIPOS>MOLECULE
UDP-glaA
 43 45 0 0 0
SMALL
GASTEIGER

@<TRIPOS>ATOM
      1 P          21.5666   73.0864   -6.0502 P.3     1  UNL1        0.2189
      2 O          21.3359   74.6215   -5.5943 O.3     1  UNL1       -0.4371
      3 O          22.7492   72.8634   -6.9467 O.2     1  UNL1       -0.5170
      4 O          20.1338   72.6392   -6.6524 O.3     1  UNL1       -0.3112
      5 C          19.7059   71.3016   -6.4601 C.3     1  UNL1        0.1811
      6 O          17.4900   70.9673   -7.3276 O.3     1  UNL1       -0.3308
      7 O          18.7522   70.9976  -10.0474 O.3     1  UNL1       -0.3794
      8 O          17.7080   73.5087   -9.8475 O.3     1  UNL1       -0.3779
      9 C          19.0909   71.7554   -8.8860 C.3     1  UNL1        0.1713
     10 C          18.0660   72.8453   -8.6528 C.3     1  UNL1        0.1895
     11 C          18.8902   70.8632   -7.6681 C.3     1  UNL1        0.1764
     12 C          16.9098   72.0673   -8.0478 C.3     1  UNL1        0.2383
     13 H          19.4127   70.2893  -10.1341 H       1  UNL1        0.2105
     14 H          18.5200   73.8863  -10.2272 H       1  UNL1        0.2106
     15 O          16.3437   71.3437   -5.3774 O.2     1  UNL1       -0.2464
     16 O          13.9061   75.1885   -4.6598 O.2     1  UNL1       -0.2670
     17 N          16.1304   72.8604   -7.1408 N.ar    1  UNL1       -0.2551
     18 N          15.1298   73.2585   -5.0220 N.ar    1  UNL1       -0.2743
     19 C          15.9039   72.4062   -5.8205 C.ar    1  UNL1        0.3323
     20 C          15.5991   74.0743   -7.5622 C.ar    1  UNL1        0.0869
     21 C          14.8634   74.8757   -6.7887 C.ar    1  UNL1        0.0795
     22 C          14.5796   74.4745   -5.3965 C.ar    1  UNL1        0.2626
     23 H          14.9536   72.9519   -4.0691 H       1  UNL1        0.1734
     24 O          21.6310   72.2957   -4.6410 O.3     1  UNL1       -0.2703
     25 P          22.8248   72.1491   -3.5612 P.3     1  UNL1        0.2208
     26 O          24.0008   73.0706   -4.1807 O.3     1  UNL1       -0.4371
     27 O          23.2312   70.7306   -3.2811 O.2     1  UNL1       -0.5170
     28 O          22.3076   72.9623   -2.2669 O.3     1  UNL1       -0.2858
     29 O          21.5008   71.2436   -0.8546 O.3     1  UNL1       -0.3226
     30 O          21.2461   74.5842    1.6060 O.3     1  UNL1       -0.3794
     31 O          20.4953   74.7553   -1.2070 O.3     1  UNL1       -0.3775
     32 O          20.9509   71.8531    1.8957 O.3     1  UNL1       -0.3792
     33 C          21.7575   73.7212    0.5941 C.3     1  UNL1        0.1718
     34 C          20.7216   73.5298   -0.5188 C.3     1  UNL1        0.1968
     35 C          22.1048   72.3699    1.2247 C.3     1  UNL1        0.1723
     36 C          21.1930   72.4711   -1.5235 C.3     1  UNL1        0.2706
     37 C          22.5203   71.3859    0.1333 C.3     1  UNL1        0.1830
     38 H          21.9324   74.6746    2.2889 H       1  UNL1        0.2105
     39 H          19.8419   74.5831   -1.9058 H       1  UNL1        0.2106
     40 H          20.3189   71.5398    1.2267 H       1  UNL1        0.2106
     41 O          23.3624   70.0818    1.8923 O.co2   1  UNL1       -0.5466
     42 O          22.4146   68.9737    0.1399 O.co2   1  UNL1       -0.5466
     43 C          22.7441   70.0153    0.6886 C.2     1  UNL1        0.0799
@<TRIPOS>UNITY_ATOM_ATTR
41 1
charge -1
@<TRIPOS>BOND
     1     1     4    1
     2     1    24    1
     3     1     2    1
     4     1     3    2
     5    25    28    1
     6    25    24    1
     7    25    26    1
     8    25    27    2
     9     6    11    1
    10     6    12    1
    11    29    36    1
    12    29    37    1
    13     7     9    1
    14     7    13    1
    15     8    10    1
    16     8    14    1
    17     4     5    1
    18    28    36    1
    19    30    33    1
    20    30    38    1
    21    31    34    1
    22    31    39    1
    23    32    35    1
    24    32    40    1
    25    41    43   ar
    26    15    19    2
    27    42    43   ar
    28    16    22    2
    29    17    12    1
    30    17    19   ar
    31    17    20   ar
    32    18    19   ar
    33    18    22   ar
    34    18    23    1
    35     9    10    1
    36     9    11    1
    37    10    12    1
    38    11     5    1
    39    33    34    1
    40    33    35    1
    41    34    36    1
    42    35    37    1
    43    37    43    1
    44    20    21   ar
    45    21    22   ar
@<TRIPOS>MOLECULE
UDP-glaA
 43 45 0 0 0
SMALL
GASTEIGER

@<TRIPOS>ATOM
      1 P          20.6192   75.4148   -6.3041 P.3     1  UNL1        0.2189
      2 O          20.1309   76.8474   -6.8754 O.3     1  UNL1       -0.4371
      3 O          22.0807   75.3296   -5.9744 O.2     1  UNL1       -0.5170
      4 O          20.0833   74.3545   -7.4015 O.3     1  UNL1       -0.3112
      5 C          20.9014   73.2433   -7.7257 C.3     1  UNL1        0.1811
      6 O          19.9236   71.0718   -8.0467 O.3     1  UNL1       -0.3308
      7 O          18.4057   72.2980  -10.3235 O.3     1  UNL1       -0.3794
      8 O          16.5461   72.2416   -8.3299 O.3     1  UNL1       -0.3779
      9 C          18.7742   72.8730   -9.0700 C.3     1  UNL1        0.1713
     10 C          17.9078   72.3144   -7.9610 C.3     1  UNL1        0.1895
     11 C          20.1519   72.3418   -8.6964 C.3     1  UNL1        0.1764
     12 C          18.5260   70.9449   -7.7367 C.3     1  UNL1        0.2383
     13 H          19.0114   72.6549  -10.9953 H       1  UNL1        0.2105
     14 H          16.2572   73.1411   -8.5617 H       1  UNL1        0.2106
     15 O          16.2230   69.6788   -6.7031 O.2     1  UNL1       -0.2464
     16 O          18.1049   69.2674   -2.5165 O.2     1  UNL1       -0.2670
     17 N          18.3872   70.4961   -6.3808 N.ar    1  UNL1       -0.2551
     18 N          17.1615   69.4753   -4.6189 N.ar    1  UNL1       -0.2743
     19 C          17.1885   69.8726   -5.9622 C.ar    1  UNL1        0.3323
     20 C          19.4318   70.6756   -5.4808 C.ar    1  UNL1        0.0869
     21 C          19.3908   70.2908   -4.2033 C.ar    1  UNL1        0.0795
     22 C          18.1748   69.6325   -3.6860 C.ar    1  UNL1        0.2626
     23 H          16.3093   69.0253   -4.2956 H       1  UNL1        0.1734
     24 O          19.6300   75.1691   -5.0486 O.3     1  UNL1       -0.2703
     25 P          19.9356   75.0475   -3.4660 P.3     1  UNL1        0.2208
     26 O          18.4956   74.6618   -2.8386 O.3     1  UNL1       -0.4371
     27 O          20.5664   76.2707   -2.8647 O.2     1  UNL1       -0.5170
     28 O          20.8171   73.7036   -3.3219 O.3     1  UNL1       -0.2858
     29 O          21.8380   73.5040   -1.1965 O.3     1  UNL1       -0.3226
     30 O          23.5547   70.3478   -3.2870 O.3     1  UNL1       -0.3794
     31 O          23.1542   72.9340   -4.5744 O.3     1  UNL1       -0.3775
     32 O          23.5134   71.2335   -0.6709 O.3     1  UNL1       -0.3792
     33 C          22.5593   71.2866   -2.8895 C.3     1  UNL1        0.1718
     34 C          23.0302   72.7171   -3.1728 C.3     1  UNL1        0.1968
     35 C          22.2837   71.1124   -1.3934 C.3     1  UNL1        0.1723
     36 C          22.0436   73.7386   -2.5935 C.3     1  UNL1        0.2706
     37 C          21.3251   72.2021   -0.9179 C.3     1  UNL1        0.1830
     38 H          23.2157   69.4585   -3.0875 H       1  UNL1        0.2105
     39 H          23.4444   73.8525   -4.7046 H       1  UNL1        0.2106
     40 H          23.7741   72.1700   -0.6596 H       1  UNL1        0.2106
     41 O          20.7551   73.3617    1.0401 O.co2   1  UNL1       -0.5466
     42 O          21.2793   71.1537    1.2566 O.co2   1  UNL1       -0.5466
     43 C          21.1287   72.1496    0.5638 C.2     1  UNL1        0.0799
@<TRIPOS>UNITY_ATOM_ATTR
41 1
charge -1
@<TRIPOS>BOND
     1     1     4    1
     2     1    24    1
     3     1     2    1
     4     1     3    2
     5    25    28    1
     6    25    24    1
     7    25    26    1
     8    25    27    2
     9     6    11    1
    10     6    12    1
    11    29    36    1
    12    29    37    1
    13     7     9    1
    14     7    13    1
    15     8    10    1
    16     8    14    1
    17     4     5    1
    18    28    36    1
    19    30    33    1
    20    30    38    1
    21    31    34    1
    22    31    39    1
    23    32    35    1
    24    32    40    1
    25    41    43   ar
    26    15    19    2
    27    42    43   ar
    28    16    22    2
    29    17    12    1
    30    17    19   ar
    31    17    20   ar
    32    18    19   ar
    33    18    22   ar
    34    18    23    1
    35     9    10    1
    36     9    11    1
    37    10    12    1
    38    11     5    1
    39    33    34    1
    40    33    35    1
    41    34    36    1
    42    35    37    1
    43    37    43    1
    44    20    21   ar
    45    21    22   ar
@<TRIPOS>MOLECULE
UDP-glaA
 43 45 0 0 0
SMALL
GASTEIGER

@<TRIPOS>ATOM
      1 P          21.5808   72.9083   -4.6158 P.3     1  UNL1        0.2189
      2 O          21.7564   73.9333   -3.3764 O.3     1  UNL1       -0.4371
      3 O          22.8060   72.7230   -5.4623 O.2     1  UNL1       -0.5170
      4 O          20.2683   73.4522   -5.3884 O.3     1  UNL1       -0.3112
      5 C          19.7234   74.7021   -5.0009 C.3     1  UNL1        0.1811
      6 O          17.6916   74.2224   -6.1907 O.3     1  UNL1       -0.3308
      7 O          16.4496   73.7492   -3.5028 O.3     1  UNL1       -0.3794
      8 O          16.9280   71.2162   -4.3919 O.3     1  UNL1       -0.3779
      9 C          17.7720   73.4532   -3.9514 C.3     1  UNL1        0.1713
     10 C          17.7571   72.2531   -4.8745 C.3     1  UNL1        0.1895
     11 C          18.2112   74.5706   -4.8885 C.3     1  UNL1        0.1764
     12 C          17.2423   72.8574   -6.1698 C.3     1  UNL1        0.2383
     13 H          16.5033   74.5459   -2.9479 H       1  UNL1        0.2105
     14 H          17.2597   70.9609   -3.5138 H       1  UNL1        0.2106
     15 O          16.3191   70.3504   -7.0852 O.2     1  UNL1       -0.2464
     16 O          19.2621   70.3564  -10.6316 O.2     1  UNL1       -0.2670
     17 N          17.7489   72.1811   -7.3297 N.ar    1  UNL1       -0.2551
     18 N          17.7856   70.3548   -8.8503 N.ar    1  UNL1       -0.2743
     19 C          17.2173   70.9247   -7.7034 C.ar    1  UNL1        0.3323
     20 C          18.7621   72.7625   -8.0838 C.ar    1  UNL1        0.0869
     21 C          19.2931   72.2067   -9.1751 C.ar    1  UNL1        0.0795
     22 C          18.7947   70.8945   -9.6327 C.ar    1  UNL1        0.2626
     23 H          17.4193   69.4512   -9.1374 H       1  UNL1        0.1734
     24 O          21.0475   71.5605   -3.8986 O.3     1  UNL1       -0.2703
     25 P          21.7367   70.6041   -2.7928 P.3     1  UNL1        0.2208
     26 O          23.3113   70.6984   -3.1502 O.3     1  UNL1       -0.4371
     27 O          21.1906   69.2054   -2.7619 O.2     1  UNL1       -0.5170
     28 O          21.5844   71.4101   -1.4031 O.3     1  UNL1       -0.2858
     29 O          23.2451   72.8249   -0.4866 O.3     1  UNL1       -0.3226
     30 O          21.0702   71.7372    2.8847 O.3     1  UNL1       -0.3794
     31 O          21.6802   69.7723    0.8175 O.3     1  UNL1       -0.3775
     32 O          23.0885   73.5274    2.2920 O.3     1  UNL1       -0.3792
     33 C          21.3221   72.0704    1.5224 C.3     1  UNL1        0.1718
     34 C          22.2861   71.0584    0.8941 C.3     1  UNL1        0.1968
     35 C          21.9249   73.4766    1.4600 C.3     1  UNL1        0.1723
     36 C          22.6975   71.5026   -0.5151 C.3     1  UNL1        0.2706
     37 C          22.3334   73.7965    0.0237 C.3     1  UNL1        0.1830
     38 H          20.4590   72.4039    3.2417 H       1  UNL1        0.2105
     39 H          22.3223   69.1696    0.4059 H       1  UNL1        0.2106
     40 H          23.8066   73.0448    1.8485 H       1  UNL1        0.2106
     41 O          24.3805   74.9404    0.0938 O.co2   1  UNL1       -0.5466
     42 O          22.5049   76.1889   -0.2532 O.co2   1  UNL1       -0.5466
     43 C          23.0453   75.1089   -0.0633 C.2     1  UNL1        0.0799
@<TRIPOS>UNITY_ATOM_ATTR
41 1
charge -1
@<TRIPOS>BOND
     1     1     4    1
     2     1    24    1
     3     1     2    1
     4     1     3    2
     5    25    28    1
     6    25    24    1
     7    25    26    1
     8    25    27    2
     9     6    11    1
    10     6    12    1
    11    29    36    1
    12    29    37    1
    13     7     9    1
    14     7    13    1
    15     8    10    1
    16     8    14    1
    17     4     5    1
    18    28    36    1
    19    30    33    1
    20    30    38    1
    21    31    34    1
    22    31    39    1
    23    32    35    1
    24    32    40    1
    25    41    43   ar
    26    15    19    2
    27    42    43   ar
    28    16    22    2
    29    17    12    1
    30    17    19   ar
    31    17    20   ar
    32    18    19   ar
    33    18    22   ar
    34    18    23    1
    35     9    10    1
    36     9    11    1
    37    10    12    1
    38    11     5    1
    39    33    34    1
    40    33    35    1
    41    34    36    1
    42    35    37    1
    43    37    43    1
    44    20    21   ar
    45    21    22   ar
@<TRIPOS>MOLECULE
UDP-glaA
 43 45 0 0 0
SMALL
GASTEIGER

@<TRIPOS>ATOM
      1 P          23.0263   72.1309   -3.1514 P.3     1  UNL1        0.2189
      2 O          23.8239   72.9483   -4.2973 O.3     1  UNL1       -0.4371
      3 O          23.4998   70.7239   -2.9318 O.2     1  UNL1       -0.5170
      4 O          21.4720   72.2926   -3.5677 O.3     1  UNL1       -0.3112
      5 C          20.6660   71.1289   -3.6422 C.3     1  UNL1        0.1811
      6 O          18.7440   72.0530   -4.7494 O.3     1  UNL1       -0.3308
      7 O          17.1230   70.8614   -2.5260 O.3     1  UNL1       -0.3794
      8 O          16.7558   69.0757   -4.5538 O.3     1  UNL1       -0.3779
      9 C          18.2921   70.3500   -3.1658 C.3     1  UNL1        0.1713
     10 C          17.9503   69.8297   -4.5460 C.3     1  UNL1        0.1895
     11 C          19.2051   71.5263   -3.4857 C.3     1  UNL1        0.1764
     12 C          17.8351   71.1146   -5.3483 C.3     1  UNL1        0.2383
     13 H          17.3970   71.2180   -1.6638 H       1  UNL1        0.2105
     14 H          16.8733   68.3347   -3.9347 H       1  UNL1        0.2106
     15 O          16.0257   70.3473   -7.3762 O.2     1  UNL1       -0.2464
     16 O          19.3142   70.4504  -10.6031 O.2     1  UNL1       -0.2670
     17 N          18.1911   70.9341   -6.7267 N.ar    1  UNL1       -0.2551
     18 N          17.6645   70.3986   -8.9816 N.ar    1  UNL1       -0.2743
     19 C          17.2069   70.5464   -7.6657 C.ar    1  UNL1        0.3323
     20 C          19.5037   71.1407   -7.1364 C.ar    1  UNL1        0.0869
     21 C          19.9243   70.9962   -8.3950 C.ar    1  UNL1        0.0795
     22 C          18.9595   70.5924   -9.4370 C.ar    1  UNL1        0.2626
     23 H          16.9743   70.1198   -9.6737 H       1  UNL1        0.1734
     24 O          23.1585   73.0953   -1.8599 O.3     1  UNL1       -0.2703
     25 P          22.3688   73.0928   -0.4496 P.3     1  UNL1        0.2208
     26 O          23.4058   73.8185    0.5575 O.3     1  UNL1       -0.4371
     27 O          21.9161   71.7333    0.0005 O.2     1  UNL1       -0.5170
     28 O          21.1757   74.1612   -0.6470 O.3     1  UNL1       -0.2858
     29 O          20.4213   74.7089    1.5279 O.3     1  UNL1       -0.3226
     30 O          18.0450   77.1463   -0.8579 O.3     1  UNL1       -0.3794
     31 O          18.6150   74.3983   -1.6515 O.3     1  UNL1       -0.3775
     32 O          18.5418   76.8551    1.8437 O.3     1  UNL1       -0.3792
     33 C          19.1992   76.4226   -0.4401 C.3     1  UNL1        0.1718
     34 C          18.8895   74.9241   -0.3572 C.3     1  UNL1        0.1968
     35 C          19.6406   76.9429    0.9306 C.3     1  UNL1        0.1723
     36 C          20.0695   74.1585    0.2542 C.3     1  UNL1        0.2706
     37 C          20.7886   76.0859    1.4595 C.3     1  UNL1        0.1830
     38 H          18.2861   78.0876   -0.8938 H       1  UNL1        0.2105
     39 H          18.4347   73.4485   -1.5501 H       1  UNL1        0.2106
     40 H          18.4113   75.9215    2.0811 H       1  UNL1        0.2106
     41 O          21.2636   77.8237    2.9621 O.co2   1  UNL1       -0.5466
     42 O          21.3597   75.6952    3.7727 O.co2   1  UNL1       -0.5466
     43 C          21.1665   76.4768    2.8528 C.2     1  UNL1        0.0799
@<TRIPOS>UNITY_ATOM_ATTR
41 1
charge -1
@<TRIPOS>BOND
     1     1     4    1
     2     1    24    1
     3     1     2    1
     4     1     3    2
     5    25    28    1
     6    25    24    1
     7    25    26    1
     8    25    27    2
     9     6    11    1
    10     6    12    1
    11    29    36    1
    12    29    37    1
    13     7     9    1
    14     7    13    1
    15     8    10    1
    16     8    14    1
    17     4     5    1
    18    28    36    1
    19    30    33    1
    20    30    38    1
    21    31    34    1
    22    31    39    1
    23    32    35    1
    24    32    40    1
    25    41    43   ar
    26    15    19    2
    27    42    43   ar
    28    16    22    2
    29    17    12    1
    30    17    19   ar
    31    17    20   ar
    32    18    19   ar
    33    18    22   ar
    34    18    23    1
    35     9    10    1
    36     9    11    1
    37    10    12    1
    38    11     5    1
    39    33    34    1
    40    33    35    1
    41    34    36    1
    42    35    37    1
    43    37    43    1
    44    20    21   ar
    45    21    22   ar
@<TRIPOS>MOLECULE
UDP-glaA
 43 45 0 0 0
SMALL
GASTEIGER

@<TRIPOS>ATOM
      1 P          22.4549   73.1703   -4.5574 P.3     1  UNL1        0.2189
      2 O          22.7922   73.7489   -6.0301 O.3     1  UNL1       -0.4371
      3 O          23.5339   72.3244   -3.9473 O.2     1  UNL1       -0.5170
      4 O          21.0176   72.4517   -4.7407 O.3     1  UNL1       -0.3112
      5 C          20.5074   71.6747   -3.6707 C.3     1  UNL1        0.1811
      6 O          18.5074   72.3224   -4.8347 O.3     1  UNL1       -0.3308
      7 O          17.0039   71.1284   -2.5315 O.3     1  UNL1       -0.3794
      8 O          16.8282   69.1802   -4.4313 O.3     1  UNL1       -0.3779
      9 C          18.2217   70.6949   -3.1371 C.3     1  UNL1        0.1713
     10 C          17.9408   70.0495   -4.4777 C.3     1  UNL1        0.1895
     11 C          19.0131   71.9326   -3.5388 C.3     1  UNL1        0.1764
     12 C          17.7006   71.2584   -5.3660 C.3     1  UNL1        0.2383
     13 H          17.2364   71.5690   -1.6963 H       1  UNL1        0.2105
     14 H          17.0168   68.4990   -3.7631 H       1  UNL1        0.2106
     15 O          15.9564   70.2790   -7.3594 O.2     1  UNL1       -0.2464
     16 O          19.2663   70.3830  -10.5645 O.2     1  UNL1       -0.2670
     17 N          18.0797   71.0208   -6.7295 N.ar    1  UNL1       -0.2551
     18 N          17.6059   70.3310   -8.9540 N.ar    1  UNL1       -0.2743
     19 C          17.1277   70.5268   -7.6517 C.ar    1  UNL1        0.3323
     20 C          19.3829   71.2766   -7.1412 C.ar    1  UNL1        0.0869
     21 C          19.8233   71.0852   -8.3867 C.ar    1  UNL1        0.0795
     22 C          18.8927   70.5705   -9.4107 C.ar    1  UNL1        0.2626
     23 H          16.9390   69.9758   -9.6338 H       1  UNL1        0.1734
     24 O          22.0897   74.5040   -3.7190 O.3     1  UNL1       -0.2703
     25 P          22.1335   74.8035   -2.1313 P.3     1  UNL1        0.2208
     26 O          20.7148   75.5280   -1.8510 O.3     1  UNL1       -0.4371
     27 O          23.3313   75.5927   -1.6861 O.2     1  UNL1       -0.5170
     28 O          21.9954   73.3531   -1.4376 O.3     1  UNL1       -0.2858
     29 O          22.8696   73.5586    0.7517 O.3     1  UNL1       -0.3226
     30 O          21.6659   69.5808    0.6643 O.3     1  UNL1       -0.3794
     31 O          22.9802   70.7822   -1.6455 O.3     1  UNL1       -0.3775
     32 O          22.5856   71.3560    2.5702 O.3     1  UNL1       -0.3792
     33 C          21.6469   70.9763    0.3771 C.3     1  UNL1        0.1718
     34 C          22.9267   71.3881   -0.3584 C.3     1  UNL1        0.1968
     35 C          21.5262   71.7509    1.6923 C.3     1  UNL1        0.1723
     36 C          22.9944   72.9119   -0.5192 C.3     1  UNL1        0.2706
     37 C          21.6471   73.2485    1.4189 C.3     1  UNL1        0.1830
     38 H          20.8402   69.3660    1.1308 H       1  UNL1        0.2105
     39 H          23.8000   71.0786   -2.0755 H       1  UNL1        0.2106
     40 H          23.4151   71.7486    2.2493 H       1  UNL1        0.2106
     41 O          22.8921   73.9953    3.2617 O.co2   1  UNL1       -0.5466
     42 O          20.7087   74.6417    3.1532 O.co2   1  UNL1       -0.5466
     43 C          21.6647   74.0371    2.6896 C.2     1  UNL1        0.0799
@<TRIPOS>UNITY_ATOM_ATTR
41 1
charge -1
@<TRIPOS>BOND
     1     1     4    1
     2     1    24    1
     3     1     2    1
     4     1     3    2
     5    25    28    1
     6    25    24    1
     7    25    26    1
     8    25    27    2
     9     6    11    1
    10     6    12    1
    11    29    36    1
    12    29    37    1
    13     7     9    1
    14     7    13    1
    15     8    10    1
    16     8    14    1
    17     4     5    1
    18    28    36    1
    19    30    33    1
    20    30    38    1
    21    31    34    1
    22    31    39    1
    23    32    35    1
    24    32    40    1
    25    41    43   ar
    26    15    19    2
    27    42    43   ar
    28    16    22    2
    29    17    12    1
    30    17    19   ar
    31    17    20   ar
    32    18    19   ar
    33    18    22   ar
    34    18    23    1
    35     9    10    1
    36     9    11    1
    37    10    12    1
    38    11     5    1
    39    33    34    1
    40    33    35    1
    41    34    36    1
    42    35    37    1
    43    37    43    1
    44    20    21   ar
    45    21    22   ar
@<TRIPOS>MOLECULE
UDP-glaA
 43 45 0 0 0
SMALL
GASTEIGER

@<TRIPOS>ATOM
      1 P          21.4612   73.8938   -5.2124 P.3     1  UNL1        0.2189
      2 O          21.0536   74.9193   -4.0295 O.3     1  UNL1       -0.4371
      3 O          22.5147   74.3999   -6.1538 O.2     1  UNL1       -0.5170
      4 O          20.0468   73.4964   -5.8884 O.3     1  UNL1       -0.3112
      5 C          19.6760   72.1289   -5.9295 C.3     1  UNL1        0.1811
      6 O          17.4305   72.9814   -5.8586 O.3     1  UNL1       -0.3308
      7 O          16.6749   70.3624   -4.6090 O.3     1  UNL1       -0.3794
      8 O          15.8895   70.0348   -7.1997 O.3     1  UNL1       -0.3779
      9 C          17.6415   70.6335   -5.6240 C.3     1  UNL1        0.1713
     10 C          16.9527   70.9278   -6.9399 C.3     1  UNL1        0.1895
     11 C          18.2984   71.9693   -5.3023 C.3     1  UNL1        0.1764
     12 C          16.4786   72.3566   -6.7354 C.3     1  UNL1        0.2383
     13 H          17.1595   70.2189   -3.7783 H       1  UNL1        0.2105
     14 H          16.2584   69.1348   -7.2072 H       1  UNL1        0.2106
     15 O          18.4972   72.3324   -8.7102 O.2     1  UNL1       -0.2464
     16 O          16.1459   75.2345  -11.4098 O.2     1  UNL1       -0.2670
     17 N          16.4198   73.0958   -7.9640 N.ar    1  UNL1       -0.2551
     18 N          17.3252   73.7779  -10.0530 N.ar    1  UNL1       -0.2743
     19 C          17.4872   73.0155   -8.8887 C.ar    1  UNL1        0.3323
     20 C          15.3130   73.8900   -8.2428 C.ar    1  UNL1        0.0869
     21 C          15.1733   74.6107   -9.3577 C.ar    1  UNL1        0.0795
     22 C          16.2434   74.5829  -10.3744 C.ar    1  UNL1        0.2626
     23 H          18.0806   73.7360  -10.7318 H       1  UNL1        0.1734
     24 O          21.8674   72.5526   -4.4053 O.3     1  UNL1       -0.2703
     25 P          23.0755   72.2622   -3.3715 P.3     1  UNL1        0.2208
     26 O          24.2709   73.2010   -3.9246 O.3     1  UNL1       -0.4371
     27 O          23.4377   70.8106   -3.2394 O.2     1  UNL1       -0.5170
     28 O          22.6114   72.9616   -1.9933 O.3     1  UNL1       -0.2858
     29 O          21.7470   71.2647   -0.5888 O.3     1  UNL1       -0.3226
     30 O          21.2994   74.6587    1.7690 O.3     1  UNL1       -0.3794
     31 O          20.7142   74.7508   -1.0866 O.3     1  UNL1       -0.3775
     32 O          21.0265   71.9311    2.1085 O.3     1  UNL1       -0.3792
     33 C          21.8822   73.7800    0.8107 C.3     1  UNL1        0.1718
     34 C          20.9168   73.5457   -0.3562 C.3     1  UNL1        0.1968
     35 C          22.2106   72.4497    1.4939 C.3     1  UNL1        0.1723
     36 C          21.4619   72.4709   -1.3048 C.3     1  UNL1        0.2706
     37 C          22.7041   71.4465    0.4536 C.3     1  UNL1        0.1830
     38 H          21.9427   74.7761    2.4887 H       1  UNL1        0.2105
     39 H          20.1059   74.5517   -1.8182 H       1  UNL1        0.2106
     40 H          20.4398   71.5920    1.4113 H       1  UNL1        0.2106
     41 O          22.3659   69.1320    0.2731 O.co2   1  UNL1       -0.5466
     42 O          23.5011   69.8755    2.1049 O.co2   1  UNL1       -0.5466
     43 C          22.9141   70.0932    1.0549 C.2     1  UNL1        0.0799
@<TRIPOS>UNITY_ATOM_ATTR
41 1
charge -1
@<TRIPOS>BOND
     1     1     4    1
     2     1    24    1
     3     1     2    1
     4     1     3    2
     5    25    28    1
     6    25    24    1
     7    25    26    1
     8    25    27    2
     9     6    11    1
    10     6    12    1
    11    29    36    1
    12    29    37    1
    13     7     9    1
    14     7    13    1
    15     8    10    1
    16     8    14    1
    17     4     5    1
    18    28    36    1
    19    30    33    1
    20    30    38    1
    21    31    34    1
    22    31    39    1
    23    32    35    1
    24    32    40    1
    25    41    43   ar
    26    15    19    2
    27    42    43   ar
    28    16    22    2
    29    17    12    1
    30    17    19   ar
    31    17    20   ar
    32    18    19   ar
    33    18    22   ar
    34    18    23    1
    35     9    10    1
    36     9    11    1
    37    10    12    1
    38    11     5    1
    39    33    34    1
    40    33    35    1
    41    34    36    1
    42    35    37    1
    43    37    43    1
    44    20    21   ar
    45    21    22   ar
@<TRIPOS>MOLECULE
UDP-glaA
 43 45 0 0 0
SMALL
GASTEIGER

@<TRIPOS>ATOM
      1 P          21.7769   73.1975   -5.1428 P.3     1  UNL1        0.2189
      2 O          20.3685   73.8108   -5.6506 O.3     1  UNL1       -0.4371
      3 O          22.8026   72.9924   -6.2189 O.2     1  UNL1       -0.5170
      4 O          21.3505   71.8742   -4.3167 O.3     1  UNL1       -0.3112
      5 C          20.3513   71.0287   -4.8607 C.3     1  UNL1        0.1811
      6 O          18.2046   71.7983   -4.1031 O.3     1  UNL1       -0.3308
      7 O          17.9981   69.1931   -2.6328 O.3     1  UNL1       -0.3794
      8 O          16.4565   68.7555   -4.8391 O.3     1  UNL1       -0.3779
      9 C          18.5848   69.4683   -3.9047 C.3     1  UNL1        0.1713
     10 C          17.5060   69.6955   -4.9425 C.3     1  UNL1        0.1895
     11 C          19.2481   70.8373   -3.8296 C.3     1  UNL1        0.1764
     12 C          17.0554   71.1112   -4.6251 C.3     1  UNL1        0.2383
     13 H          18.7244   69.0938   -1.9939 H       1  UNL1        0.2105
     14 H          16.8449   67.8702   -4.9460 H       1  UNL1        0.2106
     15 O          17.6049   70.3395   -7.2855 O.2     1  UNL1       -0.2464
     16 O          15.1850   73.8662   -9.0015 O.2     1  UNL1       -0.2670
     17 N          16.5813   71.8089   -5.7860 N.ar    1  UNL1       -0.2551
     18 N          16.4000   72.0965   -8.1383 N.ar    1  UNL1       -0.2743
     19 C          16.9149   71.3392   -7.0779 C.ar    1  UNL1        0.3323
     20 C          15.7949   72.9460   -5.6382 C.ar    1  UNL1        0.0869
     21 C          15.3112   73.6568   -6.6593 C.ar    1  UNL1        0.0795
     22 C          15.6139   73.2342   -8.0410 C.ar    1  UNL1        0.2626
     23 H          16.6275   71.7777   -9.0762 H       1  UNL1        0.1734
     24 O          22.2206   74.2263   -3.9766 O.3     1  UNL1       -0.2703
     25 P          23.6303   74.4143   -3.2086 P.3     1  UNL1        0.2208
     26 O          23.6758   76.0013   -2.8996 O.3     1  UNL1       -0.4371
     27 O          24.8188   73.8960   -3.9668 O.2     1  UNL1       -0.5170
     28 O          23.4061   73.7238   -1.7675 O.3     1  UNL1       -0.2858
     29 O          21.7101   72.1992   -1.1362 O.3     1  UNL1       -0.3226
     30 O          22.5338   74.1220    2.4560 O.3     1  UNL1       -0.3794
     31 O          22.4089   75.6301   -0.0372 O.3     1  UNL1       -0.3775
     32 O          21.0347   71.9493    1.6423 O.3     1  UNL1       -0.3792
     33 C          22.7775   73.5544    1.1719 C.3     1  UNL1        0.1718
     34 C          21.9614   74.2857    0.1007 C.3     1  UNL1        0.1968
     35 C          22.3917   72.0730    1.2040 C.3     1  UNL1        0.1723
     36 C          22.0832   73.5762   -1.2536 C.3     1  UNL1        0.2706
     37 C          22.5108   71.4812   -0.1988 C.3     1  UNL1        0.1830
     38 H          23.0676   73.6277    3.1013 H       1  UNL1        0.2105
     39 H          21.8712   76.0487   -0.7304 H       1  UNL1        0.2106
     40 H          20.4496   72.2332    0.9196 H       1  UNL1        0.2106
     41 O          21.5717   69.7547   -1.4798 O.co2   1  UNL1       -0.5466
     42 O          22.0222   69.2973    0.7077 O.co2   1  UNL1       -0.5466
     43 C          22.0198   70.0690   -0.2404 C.2     1  UNL1        0.0799
@<TRIPOS>UNITY_ATOM_ATTR
41 1
charge -1
@<TRIPOS>BOND
     1     1     4    1
     2     1    24    1
     3     1     2    1
     4     1     3    2
     5    25    28    1
     6    25    24    1
     7    25    26    1
     8    25    27    2
     9     6    11    1
    10     6    12    1
    11    29    36    1
    12    29    37    1
    13     7     9    1
    14     7    13    1
    15     8    10    1
    16     8    14    1
    17     4     5    1
    18    28    36    1
    19    30    33    1
    20    30    38    1
    21    31    34    1
    22    31    39    1
    23    32    35    1
    24    32    40    1
    25    41    43   ar
    26    15    19    2
    27    42    43   ar
    28    16    22    2
    29    17    12    1
    30    17    19   ar
    31    17    20   ar
    32    18    19   ar
    33    18    22   ar
    34    18    23    1
    35     9    10    1
    36     9    11    1
    37    10    12    1
    38    11     5    1
    39    33    34    1
    40    33    35    1
    41    34    36    1
    42    35    37    1
    43    37    43    1
    44    20    21   ar
    45    21    22   ar
@<TRIPOS>MOLECULE
UDP-glaA
 43 45 0 0 0
SMALL
GASTEIGER

@<TRIPOS>ATOM
      1 P          22.3226   74.1633   -6.5949 P.3     1  UNL1        0.2189
      2 O          23.4396   75.3089   -6.8340 O.3     1  UNL1       -0.4371
      3 O          22.6950   72.8006   -7.1013 O.2     1  UNL1       -0.5170
      4 O          20.9723   74.7997   -7.2172 O.3     1  UNL1       -0.3112
      5 C          19.7311   74.1875   -6.9107 C.3     1  UNL1        0.1811
      6 O          19.5322   71.8959   -7.6059 O.3     1  UNL1       -0.3308
      7 O          17.7425   72.9087   -9.7883 O.3     1  UNL1       -0.3794
      8 O          15.9646   71.9410   -7.9611 O.3     1  UNL1       -0.3779
      9 C          17.8742   73.3667   -8.4427 C.3     1  UNL1        0.1713
     10 C          17.2179   72.3907   -7.4892 C.3     1  UNL1        0.1895
     11 C          19.3418   73.2572   -8.0507 C.3     1  UNL1        0.1764
     12 C          18.2489   71.2771   -7.4180 C.3     1  UNL1        0.2383
     13 H          18.2103   73.5433  -10.3575 H       1  UNL1        0.2105
     14 H          15.3998   72.7235   -8.0829 H       1  UNL1        0.2106
     15 O          16.2438   69.4664   -6.5954 O.2     1  UNL1       -0.2464
     16 O          18.3084   68.7385   -2.5400 O.2     1  UNL1       -0.2670
     17 N          18.2376   70.5997   -6.1530 N.ar    1  UNL1       -0.2551
     18 N          17.2730   69.1055   -4.5763 N.ar    1  UNL1       -0.2743
     19 C          17.1838   69.7107   -5.8368 C.ar    1  UNL1        0.3323
     20 C          19.2633   70.8190   -5.2401 C.ar    1  UNL1        0.0869
     21 C          19.3344   70.2339   -4.0424 C.ar    1  UNL1        0.0795
     22 C          18.2729   69.2924   -3.6345 C.ar    1  UNL1        0.2626
     23 H          16.5258   68.4630   -4.3274 H       1  UNL1        0.1734
     24 O          22.0594   74.2408   -5.0011 O.3     1  UNL1       -0.2703
     25 P          23.0871   74.2073   -3.7540 P.3     1  UNL1        0.2208
     26 O          23.0664   75.7322   -3.2151 O.3     1  UNL1       -0.4371
     27 O          24.4546   73.6893   -4.0964 O.2     1  UNL1       -0.5170
     28 O          22.3197   73.3609   -2.6144 O.3     1  UNL1       -0.2858
     29 O          22.7157   73.0125   -0.3076 O.3     1  UNL1       -0.3226
     30 O          21.3507   69.2814   -1.5304 O.3     1  UNL1       -0.3794
     31 O          23.1893   70.8074   -3.2026 O.3     1  UNL1       -0.3775
     32 O          21.9344   70.5148    0.8713 O.3     1  UNL1       -0.3792
     33 C          21.4670   70.7010   -1.4913 C.3     1  UNL1        0.1718
     34 C          22.8941   71.1303   -1.8478 C.3     1  UNL1        0.1968
     35 C          21.1092   71.1887   -0.0847 C.3     1  UNL1        0.1723
     36 C          23.0748   72.6394   -1.6421 C.3     1  UNL1        0.2706
     37 C          21.3644   72.6908    0.0181 C.3     1  UNL1        0.1830
     38 H          20.4343   69.0555   -1.2964 H       1  UNL1        0.2105
     39 H          24.0965   71.1056   -3.3843 H       1  UNL1        0.2106
     40 H          22.8328   70.8824    0.8174 H       1  UNL1        0.2106
     41 O          20.8663   72.1604    2.2484 O.co2   1  UNL1       -0.5466
     42 O          21.2265   74.3577    1.7594 O.co2   1  UNL1       -0.5466
     43 C          21.1517   73.1879    1.4126 C.2     1  UNL1        0.0799
@<TRIPOS>UNITY_ATOM_ATTR
41 1
charge -1
@<TRIPOS>BOND
     1     1     4    1
     2     1    24    1
     3     1     2    1
     4     1     3    2
     5    25    28    1
     6    25    24    1
     7    25    26    1
     8    25    27    2
     9     6    11    1
    10     6    12    1
    11    29    36    1
    12    29    37    1
    13     7     9    1
    14     7    13    1
    15     8    10    1
    16     8    14    1
    17     4     5    1
    18    28    36    1
    19    30    33    1
    20    30    38    1
    21    31    34    1
    22    31    39    1
    23    32    35    1
    24    32    40    1
    25    41    43   ar
    26    15    19    2
    27    42    43   ar
    28    16    22    2
    29    17    12    1
    30    17    19   ar
    31    17    20   ar
    32    18    19   ar
    33    18    22   ar
    34    18    23    1
    35     9    10    1
    36     9    11    1
    37    10    12    1
    38    11     5    1
    39    33    34    1
    40    33    35    1
    41    34    36    1
    42    35    37    1
    43    37    43    1
    44    20    21   ar
    45    21    22   ar
@<TRIPOS>MOLECULE
UDP-glaA
 43 45 0 0 0
SMALL
GASTEIGER

@<TRIPOS>ATOM
      1 P          20.7321   70.2132   -2.6689 P.3     1  UNL1        0.2189
      2 O          22.2607   70.0106   -3.1586 O.3     1  UNL1       -0.4371
      3 O          19.9643   68.9427   -2.4488 O.2     1  UNL1       -0.5170
      4 O          20.1063   71.2332   -3.7567 O.3     1  UNL1       -0.3112
      5 C          19.5057   70.6954   -4.9226 C.3     1  UNL1        0.1811
      6 O          18.8157   72.8231   -5.8006 O.3     1  UNL1       -0.3308
      7 O          16.1738   71.5225   -6.3664 O.3     1  UNL1       -0.3794
      8 O          17.3775   71.5146   -8.8132 O.3     1  UNL1       -0.3779
      9 C          17.4878   70.9704   -6.4462 C.3     1  UNL1        0.1713
     10 C          18.2064   71.4997   -7.6693 C.3     1  UNL1        0.1895
     11 C          18.3145   71.5597   -5.3109 C.3     1  UNL1        0.1764
     12 C          18.6076   72.8947   -7.2208 C.3     1  UNL1        0.2383
     13 H          15.7675   71.1866   -5.5493 H       1  UNL1        0.2105
     14 H          17.0765   70.6028   -8.9684 H       1  UNL1        0.2106
     15 O          20.5528   71.1859   -8.3486 O.2     1  UNL1       -0.2464
     16 O          23.2113   74.7366   -9.5991 O.2     1  UNL1       -0.2670
     17 N          19.8171   73.3454   -7.8479 N.ar    1  UNL1       -0.2551
     18 N          21.8756   72.9551   -8.9701 N.ar    1  UNL1       -0.2743
     19 C          20.7288   72.4052   -8.3823 C.ar    1  UNL1        0.3323
     20 C          20.0904   74.7064   -7.9287 C.ar    1  UNL1        0.0869
     21 C          21.1881   75.2150   -8.4928 C.ar    1  UNL1        0.0795
     22 C          22.1913   74.3010   -9.0739 C.ar    1  UNL1        0.2626
     23 H          22.5454   72.2978   -9.3604 H       1  UNL1        0.1734
     24 O          20.8929   71.1395   -1.3531 O.3     1  UNL1       -0.2703
     25 P          21.6680   70.8761    0.0407 P.3     1  UNL1        0.2208
     26 O          23.1682   71.3977   -0.2648 O.3     1  UNL1       -0.4371
     27 O          21.5920   69.4580    0.5293 O.2     1  UNL1       -0.5170
     28 O          21.0564   71.9664    1.0610 O.3     1  UNL1       -0.2858
     29 O          21.1600   74.2931    1.4800 O.3     1  UNL1       -0.3226
     30 O          21.7921   72.6973    5.2660 O.3     1  UNL1       -0.3794
     31 O          23.0393   71.4902    2.9222 O.3     1  UNL1       -0.3775
     32 O          21.3554   75.2055    4.1944 O.3     1  UNL1       -0.3792
     33 C          21.2691   72.8044    3.9448 C.3     1  UNL1        0.1718
     34 C          22.4040   72.7643    2.9159 C.3     1  UNL1        0.1968
     35 C          20.4977   74.1214    3.8228 C.3     1  UNL1        0.1723
     36 C          21.8701   73.0505    1.5069 C.3     1  UNL1        0.2706
     37 C          20.0505   74.3221    2.3765 C.3     1  UNL1        0.1830
     38 H          21.0407   72.7296    5.8824 H       1  UNL1        0.2105
     39 H          23.7419   71.5095    2.2508 H       1  UNL1        0.2106
     40 H          21.9979   75.3501    3.4793 H       1  UNL1        0.2106
     41 O          20.3040   76.5613    1.7241 O.co2   1  UNL1       -0.5466
     42 O          18.2290   75.9068    2.4045 O.co2   1  UNL1       -0.5466
     43 C          19.4052   75.6576    2.1836 C.2     1  UNL1        0.0799
@<TRIPOS>UNITY_ATOM_ATTR
41 1
charge -1
@<TRIPOS>BOND
     1     1     4    1
     2     1    24    1
     3     1     2    1
     4     1     3    2
     5    25    28    1
     6    25    24    1
     7    25    26    1
     8    25    27    2
     9     6    11    1
    10     6    12    1
    11    29    36    1
    12    29    37    1
    13     7     9    1
    14     7    13    1
    15     8    10    1
    16     8    14    1
    17     4     5    1
    18    28    36    1
    19    30    33    1
    20    30    38    1
    21    31    34    1
    22    31    39    1
    23    32    35    1
    24    32    40    1
    25    41    43   ar
    26    15    19    2
    27    42    43   ar
    28    16    22    2
    29    17    12    1
    30    17    19   ar
    31    17    20   ar
    32    18    19   ar
    33    18    22   ar
    34    18    23    1
    35     9    10    1
    36     9    11    1
    37    10    12    1
    38    11     5    1
    39    33    34    1
    40    33    35    1
    41    34    36    1
    42    35    37    1
    43    37    43    1
    44    20    21   ar
    45    21    22   ar
@<TRIPOS>MOLECULE
UDP-glaA
 43 45 0 0 0
SMALL
GASTEIGER

@<TRIPOS>ATOM
      1 P          22.5003   72.9642   -4.6361 P.3     1  UNL1        0.2189
      2 O          21.5904   74.2681   -4.3374 O.3     1  UNL1       -0.4371
      3 O          23.8927   73.0230   -4.0794 O.2     1  UNL1       -0.5170
      4 O          22.3913   72.7715   -6.2381 O.3     1  UNL1       -0.3112
      5 C          21.1440   73.0143   -6.8663 C.3     1  UNL1        0.1811
      6 O          19.0789   71.7864   -6.8223 O.3     1  UNL1       -0.3308
      7 O          20.3739   69.9034   -8.7636 O.3     1  UNL1       -0.3794
      8 O          18.7990   71.4346  -10.3795 O.3     1  UNL1       -0.3779
      9 C          20.5076   71.3204   -8.6537 C.3     1  UNL1        0.1713
     10 C          19.2628   72.0073   -9.1743 C.3     1  UNL1        0.1895
     11 C          20.4761   71.6817   -7.1745 C.3     1  UNL1        0.1764
     12 C          18.2903   71.8133   -8.0234 C.3     1  UNL1        0.2383
     13 H          21.1758   69.5062   -8.3833 H       1  UNL1        0.2105
     14 H          19.5179   71.5022  -11.0313 H       1  UNL1        0.2106
     15 O          15.8848   71.6699   -6.5509 O.2     1  UNL1       -0.2464
     16 O          14.6893   75.9597   -7.7371 O.2     1  UNL1       -0.2670
     17 N          17.3325   72.8777   -7.9296 N.ar    1  UNL1       -0.2551
     18 N          15.2908   73.8060   -7.1430 N.ar    1  UNL1       -0.2743
     19 C          16.1555   72.7037   -7.1646 C.ar    1  UNL1        0.3323
     20 C          17.5636   74.0785   -8.5915 C.ar    1  UNL1        0.0869
     21 C          16.7297   75.1203   -8.5606 C.ar    1  UNL1        0.0795
     22 C          15.4774   75.0203   -7.7852 C.ar    1  UNL1        0.2626
     23 H          14.4379   73.7033   -6.5997 H       1  UNL1        0.1734
     24 O          21.5962   71.7523   -4.0623 O.3     1  UNL1       -0.2703
     25 P          21.8993   70.6543   -2.9155 P.3     1  UNL1        0.2208
     26 O          23.4978   70.4335   -3.0264 O.3     1  UNL1       -0.4371
     27 O          21.0895   69.3954   -3.0387 O.2     1  UNL1       -0.5170
     28 O          21.6920   71.4470   -1.5253 O.3     1  UNL1       -0.2858
     29 O          23.3121   72.8612   -0.5381 O.3     1  UNL1       -0.3226
     30 O          21.0194   71.7400    2.7430 O.3     1  UNL1       -0.3794
     31 O          21.7130   69.7930    0.6852 O.3     1  UNL1       -0.3775
     32 O          23.0508   73.5423    2.2379 O.3     1  UNL1       -0.3792
     33 C          21.3198   72.0844    1.3934 C.3     1  UNL1        0.1718
     34 C          22.3103   71.0808    0.7934 C.3     1  UNL1        0.1968
     35 C          21.9187   73.4933    1.3634 C.3     1  UNL1        0.1723
     36 C          22.7714   71.5372   -0.5964 C.3     1  UNL1        0.2706
     37 C          22.3784   73.8255   -0.0545 C.3     1  UNL1        0.1830
     38 H          20.3928   72.4017    3.0821 H       1  UNL1        0.2105
     39 H          22.3721   69.1959    0.2931 H       1  UNL1        0.2106
     40 H          23.7867   73.0658    1.8176 H       1  UNL1        0.2106
     41 O          24.4262   74.9681    0.0114 O.co2   1  UNL1       -0.5466
     42 O          22.5424   76.2274   -0.2381 O.co2   1  UNL1       -0.5466
     43 C          23.0876   75.1413   -0.1057 C.2     1  UNL1        0.0799
@<TRIPOS>UNITY_ATOM_ATTR
41 1
charge -1
@<TRIPOS>BOND
     1     1     4    1
     2     1    24    1
     3     1     2    1
     4     1     3    2
     5    25    28    1
     6    25    24    1
     7    25    26    1
     8    25    27    2
     9     6    11    1
    10     6    12    1
    11    29    36    1
    12    29    37    1
    13     7     9    1
    14     7    13    1
    15     8    10    1
    16     8    14    1
    17     4     5    1
    18    28    36    1
    19    30    33    1
    20    30    38    1
    21    31    34    1
    22    31    39    1
    23    32    35    1
    24    32    40    1
    25    41    43   ar
    26    15    19    2
    27    42    43   ar
    28    16    22    2
    29    17    12    1
    30    17    19   ar
    31    17    20   ar
    32    18    19   ar
    33    18    22   ar
    34    18    23    1
    35     9    10    1
    36     9    11    1
    37    10    12    1
    38    11     5    1
    39    33    34    1
    40    33    35    1
    41    34    36    1
    42    35    37    1
    43    37    43    1
    44    20    21   ar
    45    21    22   ar
@<TRIPOS>MOLECULE
UDP-glaA
 43 45 0 0 0
SMALL
GASTEIGER

@<TRIPOS>ATOM
      1 P          22.1340   70.9179   -2.9419 P.3     1  UNL1        0.2189
      2 O          21.2975   69.6809   -2.3192 O.3     1  UNL1       -0.4371
      3 O          23.5577   70.6039   -3.2977 O.2     1  UNL1       -0.5170
      4 O          21.9241   72.1096   -1.8689 O.3     1  UNL1       -0.3112
      5 C          20.7158   72.1499   -1.1289 C.3     1  UNL1        0.1811
      6 O          19.8673   73.8752    0.3124 O.3     1  UNL1       -0.3308
      7 O          20.6343   75.8021   -1.8533 O.3     1  UNL1       -0.3794
      8 O          22.6776   76.0692   -0.0674 O.3     1  UNL1       -0.3779
      9 C          21.2935   74.6083   -1.4315 C.3     1  UNL1        0.1713
     10 C          21.9929   74.8343   -0.1077 C.3     1  UNL1        0.1895
     11 C          20.2254   73.5890   -1.0576 C.3     1  UNL1        0.1764
     12 C          20.8357   74.7758    0.8749 C.3     1  UNL1        0.2383
     13 H          20.1693   75.5988   -2.6827 H       1  UNL1        0.2105
     14 H          23.3245   76.0691   -0.7939 H       1  UNL1        0.2106
     15 O          20.2850   76.0817    3.3176 O.2     1  UNL1       -0.2464
     16 O          22.4193   72.8076    5.7597 O.2     1  UNL1       -0.2670
     17 N          21.2350   74.2869    2.1636 N.ar    1  UNL1       -0.2551
     18 N          21.3486   74.4507    4.5320 N.ar    1  UNL1       -0.2743
     19 C          20.9093   75.0192    3.3291 C.ar    1  UNL1        0.3323
     20 C          21.9419   73.0937    2.2638 C.ar    1  UNL1        0.0869
     21 C          22.3533   72.5645    3.4182 C.ar    1  UNL1        0.0795
     22 C          22.0547   73.2672    4.6818 C.ar    1  UNL1        0.2626
     23 H          21.1262   74.9603    5.3828 H       1  UNL1        0.1734
     24 O          21.2157   71.3854   -4.1882 O.3     1  UNL1       -0.2703
     25 P          21.2895   72.7005   -5.1250 P.3     1  UNL1        0.2208
     26 O          22.8739   72.8697   -5.4028 O.3     1  UNL1       -0.4371
     27 O          20.6303   73.9145   -4.5355 O.2     1  UNL1       -0.5170
     28 O          20.6747   72.2293   -6.5406 O.3     1  UNL1       -0.2858
     29 O          18.4679   71.5425   -6.0327 O.3     1  UNL1       -0.3226
     30 O          18.5666   71.1662  -10.1713 O.3     1  UNL1       -0.3794
     31 O          20.8521   70.3490   -8.5544 O.3     1  UNL1       -0.3775
     32 O          16.6479   71.0192   -8.1896 O.3     1  UNL1       -0.3792
     33 C          18.8592   71.7005   -8.8832 C.3     1  UNL1        0.1718
     34 C          19.5686   70.6529   -8.0186 C.3     1  UNL1        0.1968
     35 C          17.5497   72.1305   -8.2163 C.3     1  UNL1        0.1723
     36 C          19.7335   71.1575   -6.5797 C.3     1  UNL1        0.2706
     37 C          17.8260   72.5736   -6.7812 C.3     1  UNL1        0.1830
     38 H          18.1170   71.8610  -10.6819 H       1  UNL1        0.2105
     39 H          21.2655   69.6910   -7.9704 H       1  UNL1        0.2106
     40 H          16.9523   70.3905   -7.5134 H       1  UNL1        0.2106
     41 O          16.0480   71.7580   -5.4861 O.co2   1  UNL1       -0.5466
     42 O          16.0475   73.9872   -5.9636 O.co2   1  UNL1       -0.5466
     43 C          16.5581   72.8797   -6.0493 C.2     1  UNL1        0.0799
@<TRIPOS>UNITY_ATOM_ATTR
41 1
charge -1
@<TRIPOS>BOND
     1     1     4    1
     2     1    24    1
     3     1     2    1
     4     1     3    2
     5    25    28    1
     6    25    24    1
     7    25    26    1
     8    25    27    2
     9     6    11    1
    10     6    12    1
    11    29    36    1
    12    29    37    1
    13     7     9    1
    14     7    13    1
    15     8    10    1
    16     8    14    1
    17     4     5    1
    18    28    36    1
    19    30    33    1
    20    30    38    1
    21    31    34    1
    22    31    39    1
    23    32    35    1
    24    32    40    1
    25    41    43   ar
    26    15    19    2
    27    42    43   ar
    28    16    22    2
    29    17    12    1
    30    17    19   ar
    31    17    20   ar
    32    18    19   ar
    33    18    22   ar
    34    18    23    1
    35     9    10    1
    36     9    11    1
    37    10    12    1
    38    11     5    1
    39    33    34    1
    40    33    35    1
    41    34    36    1
    42    35    37    1
    43    37    43    1
    44    20    21   ar
    45    21    22   ar
