@<TRIPOS>MOLECULE
UD1
 46 48 0 0 0
SMALL
GASTEIGER

@<TRIPOS>ATOM
      1 P          20.8667   70.7895   -3.4619 P.3     1  UNL1        0.2189
      2 O          21.6141   71.4092   -4.5782 O.2     1  UNL1       -0.5170
      3 O          20.3365   69.3372   -3.9117 O.3     1  UNL1       -0.4371
      4 O          19.6121   71.7213   -3.0741 O.3     1  UNL1       -0.3112
      5 C          18.6176   70.8637   -2.5121 C.3     1  UNL1        0.1811
      6 C          16.9633   70.5332   -5.6871 C.3     1  UNL1        0.2383
      7 C          16.9564   69.1016   -5.0950 C.3     1  UNL1        0.1895
      8 O          15.8093   68.3727   -5.5331 O.3     1  UNL1       -0.3779
      9 C          16.8864   69.3799   -3.5709 C.3     1  UNL1        0.1713
     10 C          17.3955   70.8275   -3.4309 C.3     1  UNL1        0.1764
     11 O          17.7582   71.2843   -4.7451 O.3     1  UNL1       -0.3308
     12 O          15.5404   69.2687   -3.1033 O.3     1  UNL1       -0.3794
     13 H          15.8652   67.4945   -5.1316 H       1  UNL1        0.2106
     14 H          15.2602   68.3593   -3.2725 H       1  UNL1        0.2105
     15 N          17.5851   70.5444   -7.0117 N.ar    1  UNL1       -0.2551
     16 C          16.8146   70.4607   -8.1102 C.ar    1  UNL1        0.3323
     17 N          17.3591   70.4727   -9.3413 N.ar    1  UNL1       -0.2743
     18 C          18.6961   70.5602   -9.4922 C.ar    1  UNL1        0.2626
     19 C          19.5194   70.6428   -8.3441 C.ar    1  UNL1        0.0795
     20 C          18.9466   70.6341   -7.1213 C.ar    1  UNL1        0.0869
     21 O          15.6071   70.3814   -7.9905 O.2     1  UNL1       -0.2464
     22 O          19.1898   70.5663  -10.6047 O.2     1  UNL1       -0.2670
     23 H          16.7879   70.4164  -10.1228 H       1  UNL1        0.1734
     24 O          21.8359   70.6367   -2.1866 O.3     1  UNL1       -0.2703
     25 P          23.0381   71.6872   -2.3878 P.3     1  UNL1        0.2208
     26 O          22.5481   72.8576   -3.1488 O.2     1  UNL1       -0.5170
     27 O          24.2365   70.9832   -3.2004 O.3     1  UNL1       -0.4371
     28 O          23.5772   72.1695   -0.9500 O.3     1  UNL1       -0.2865
     29 C          22.7022   71.6087    0.0302 C.3     1  UNL1        0.2611
     30 C          21.8523   72.7223    0.6447 C.3     1  UNL1        0.1582
     31 C          22.7774   73.7667    1.2794 C.3     1  UNL1        0.1625
     32 C          23.7238   73.0562    2.2529 C.3     1  UNL1        0.1686
     33 C          24.4349   71.9191    1.5161 C.3     1  UNL1        0.1760
     34 O          21.9962   74.7327    1.9851 O.3     1  UNL1       -0.3801
     35 O          24.6900   73.9866    2.7450 O.3     1  UNL1       -0.3794
     36 O          23.4745   70.9737    1.0469 O.3     1  UNL1       -0.3263
     37 H          22.6166   75.3687    2.3670 H       1  UNL1        0.2105
     38 H          25.2645   73.4986    3.3520 H       1  UNL1        0.2105
     39 C          19.7990   73.7875   -0.1192 C.2     1  UNL1        0.2231
     40 C          18.9661   74.4371   -1.1947 C.3     1  UNL1        0.0946
     41 N          21.0430   73.3539   -0.3996 N.am    1  UNL1       -0.2994
     42 O          19.3489   73.6546    0.9988 O.2     1  UNL1       -0.2751
     43 H          21.4033   73.4599   -1.2943 H       1  UNL1        0.1496
     44 C          25.4068   71.2234    2.4713 C.3     1  UNL1        0.1693
     45 O          25.0455   69.8468    2.6000 O.3     1  UNL1       -0.3794
     46 H          25.6809   69.4465    3.2088 H       1  UNL1        0.2105
@<TRIPOS>BOND
     1    29    30    1
     2    29    28    1
     3    29    36    1
     4    30    31    1
     5    30    41    1
     6    31    32    1
     7    31    34    1
     8    32    33    1
     9    32    35    1
    10    33    44    1
    11    33    36    1
    12    44    45    1
    13    39    40    1
    14    39    41   am
    15    39    42    2
    16    41    43    1
    17    28    25    1
    18    34    37    1
    19    35    38    1
    20    45    46    1
    21    15    16   ar
    22    15    20   ar
    23    15     6    1
    24    16    17   ar
    25    16    21    2
    26    17    18   ar
    27    17    23    1
    28    18    19   ar
    29    18    22    2
    30    19    20   ar
    31     6     7    1
    32     6    11    1
    33     7     8    1
    34     7     9    1
    35     8    13    1
    36     9    10    1
    37     9    12    1
    38    10    11    1
    39    10     5    1
    40    12    14    1
    41     5     4    1
    42     4     1    1
    43     1     2    2
    44     1     3    1
    45     1    24    1
    46    24    25    1
    47    25    26    2
    48    25    27    1
@<TRIPOS>MOLECULE
UD1
 46 48 0 0 0
SMALL
GASTEIGER

@<TRIPOS>ATOM
      1 P          21.0363   71.4267   -2.0998 P.3     1  UNL1        0.2189
      2 O          20.6355   72.8442   -1.9633 O.2     1  UNL1       -0.5170
      3 O          22.5557   71.3468   -2.6266 O.3     1  UNL1       -0.4371
      4 O          20.0645   70.6940   -3.1542 O.3     1  UNL1       -0.3112
      5 C          18.8997   70.2906   -2.4324 C.3     1  UNL1        0.1811
      6 C          17.1622   70.4051   -5.5781 C.3     1  UNL1        0.2383
      7 C          17.0087   68.9384   -5.1030 C.3     1  UNL1        0.1895
      8 O          15.7807   68.3766   -5.5672 O.3     1  UNL1       -0.3779
      9 C          16.9971   69.0954   -3.5602 C.3     1  UNL1        0.1713
     10 C          17.6647   70.4630   -3.3180 C.3     1  UNL1        0.1764
     11 O          18.0517   70.9853   -4.6005 O.3     1  UNL1       -0.3308
     12 O          15.6557   69.0919   -3.0669 O.3     1  UNL1       -0.3794
     13 H          15.7470   67.4673   -5.2394 H       1  UNL1        0.2106
     14 H          15.2743   68.2353   -3.3012 H       1  UNL1        0.2105
     15 N          17.7576   70.4588   -6.9138 N.ar    1  UNL1       -0.2551
     16 C          16.9622   70.4831   -7.9973 C.ar    1  UNL1        0.3323
     17 N          17.4822   70.5365   -9.2379 N.ar    1  UNL1       -0.2743
     18 C          18.8188   70.5572   -9.4140 C.ar    1  UNL1        0.2626
     19 C          19.6679   70.5259   -8.2822 C.ar    1  UNL1        0.0795
     20 C          19.1196   70.4779   -7.0492 C.ar    1  UNL1        0.0869
     21 O          15.7547   70.4650   -7.8547 O.2     1  UNL1       -0.2464
     22 O          19.2901   70.6006  -10.5353 O.2     1  UNL1       -0.2670
     23 H          16.8935   70.5582  -10.0080 H       1  UNL1        0.1734
     24 O          20.9239   70.6971   -0.6701 O.3     1  UNL1       -0.2703
     25 P          22.1252   71.2653    0.2374 P.3     1  UNL1        0.2208
     26 O          23.4047   70.6735   -0.2113 O.2     1  UNL1       -0.5170
     27 O          21.8655   70.8757    1.7778 O.3     1  UNL1       -0.4371
     28 O          22.1957   72.8670    0.0950 O.3     1  UNL1       -0.2865
     29 C          23.4830   73.2687    0.5668 C.3     1  UNL1        0.2611
     30 C          23.3136   74.3336    1.6518 C.3     1  UNL1        0.1582
     31 C          22.5544   75.5295    1.0662 C.3     1  UNL1        0.1625
     32 C          23.2797   75.9982   -0.1997 C.3     1  UNL1        0.1686
     33 C          23.4490   74.8081   -1.1465 C.3     1  UNL1        0.1760
     34 O          22.5204   76.5902    2.0229 O.3     1  UNL1       -0.3801
     35 O          22.5101   77.0162   -0.8423 O.3     1  UNL1       -0.3794
     36 O          24.2405   73.8007   -0.5179 O.3     1  UNL1       -0.3263
     37 H          22.0346   77.3197    1.6141 H       1  UNL1        0.2105
     38 H          23.0014   77.2813   -1.6328 H       1  UNL1        0.2105
     39 C          22.9354   74.0348    4.0397 C.2     1  UNL1        0.2231
     40 C          22.1564   73.4580    5.1942 C.3     1  UNL1        0.0946
     41 N          22.5569   73.7739    2.7737 N.am    1  UNL1       -0.2994
     42 O          23.9037   74.7335    4.2505 O.2     1  UNL1       -0.2751
     43 H          21.7822   73.2146    2.6047 H       1  UNL1        0.1496
     44 C          24.1436   75.2726   -2.4283 C.3     1  UNL1        0.1693
     45 O          25.0124   76.3672   -2.1300 O.3     1  UNL1       -0.3794
     46 H          25.4288   76.6289   -2.9623 H       1  UNL1        0.2105
@<TRIPOS>BOND
     1    29    30    1
     2    29    28    1
     3    29    36    1
     4    30    31    1
     5    30    41    1
     6    31    32    1
     7    31    34    1
     8    32    33    1
     9    32    35    1
    10    33    44    1
    11    33    36    1
    12    44    45    1
    13    39    40    1
    14    39    41   am
    15    39    42    2
    16    41    43    1
    17    28    25    1
    18    34    37    1
    19    35    38    1
    20    45    46    1
    21    15    16   ar
    22    15    20   ar
    23    15     6    1
    24    16    17   ar
    25    16    21    2
    26    17    18   ar
    27    17    23    1
    28    18    19   ar
    29    18    22    2
    30    19    20   ar
    31     6     7    1
    32     6    11    1
    33     7     8    1
    34     7     9    1
    35     8    13    1
    36     9    10    1
    37     9    12    1
    38    10    11    1
    39    10     5    1
    40    12    14    1
    41     5     4    1
    42     4     1    1
    43     1     2    2
    44     1     3    1
    45     1    24    1
    46    24    25    1
    47    25    26    2
    48    25    27    1
@<TRIPOS>MOLECULE
UD1
 46 48 0 0 0
SMALL
GASTEIGER

@<TRIPOS>ATOM
      1 P          20.9957   70.8696   -3.3541 P.3     1  UNL1        0.2189
      2 O          20.5553   69.5152   -3.7544 O.2     1  UNL1       -0.5170
      3 O          21.8906   70.7704   -2.0193 O.3     1  UNL1       -0.4371
      4 O          19.7058   71.7898   -3.0670 O.3     1  UNL1       -0.3112
      5 C          18.7148   70.9427   -2.4834 C.3     1  UNL1        0.1811
      6 C          17.0482   70.5730   -5.6478 C.3     1  UNL1        0.2383
      7 C          17.0600   69.1454   -5.0461 C.3     1  UNL1        0.1895
      8 O          15.9187   68.4012   -5.4736 O.3     1  UNL1       -0.3779
      9 C          16.9946   69.4331   -3.5236 C.3     1  UNL1        0.1713
     10 C          17.4885   70.8871   -3.3958 C.3     1  UNL1        0.1764
     11 O          17.8396   71.3391   -4.7148 O.3     1  UNL1       -0.3308
     12 O          15.6522   69.3103   -3.0484 O.3     1  UNL1       -0.3794
     13 H          15.9862   67.5263   -5.0666 H       1  UNL1        0.2106
     14 H          15.3812   68.3968   -3.2103 H       1  UNL1        0.2105
     15 N          17.6632   70.5822   -6.9756 N.ar    1  UNL1       -0.2551
     16 C          16.8893   70.4707   -8.0691 C.ar    1  UNL1        0.3323
     17 N          17.4274   70.4801   -9.3031 N.ar    1  UNL1       -0.2743
     18 C          18.7616   70.5931   -9.4617 C.ar    1  UNL1        0.2626
     19 C          19.5887   70.7053   -8.3187 C.ar    1  UNL1        0.0795
     20 C          19.0221   70.6984   -7.0931 C.ar    1  UNL1        0.0869
     21 O          15.6843   70.3681   -7.9424 O.2     1  UNL1       -0.2464
     22 O          19.2496   70.5969  -10.5766 O.2     1  UNL1       -0.2670
     23 H          16.8537   70.4035  -10.0810 H       1  UNL1        0.1734
     24 O          21.8674   71.5224   -4.5385 O.3     1  UNL1       -0.2703
     25 P          23.0882   72.3045   -3.8405 P.3     1  UNL1        0.2208
     26 O          23.8231   73.0833   -4.8614 O.2     1  UNL1       -0.5170
     27 O          24.0859   71.2421   -3.1562 O.3     1  UNL1       -0.4371
     28 O          22.5147   73.3018   -2.7149 O.3     1  UNL1       -0.2865
     29 C          23.6391   73.9745   -2.1453 C.3     1  UNL1        0.2611
     30 C          23.5663   73.8777   -0.6204 C.3     1  UNL1        0.1582
     31 C          22.2561   74.5117   -0.1399 C.3     1  UNL1        0.1625
     32 C          22.1612   75.9315   -0.7083 C.3     1  UNL1        0.1686
     33 C          22.3370   75.8730   -2.2272 C.3     1  UNL1        0.1760
     34 O          22.2440   74.5621    1.2879 O.3     1  UNL1       -0.3801
     35 O          20.8829   76.4874   -0.3948 O.3     1  UNL1       -0.3794
     36 O          23.6239   75.3437   -2.5436 O.3     1  UNL1       -0.3263
     37 H          21.4043   74.9665    1.5461 H       1  UNL1        0.2105
     38 H          20.8656   77.3789   -0.7709 H       1  UNL1        0.2105
     39 C          24.2879   72.1056    0.8874 C.2     1  UNL1        0.2231
     40 C          24.3305   70.6572    1.3026 C.3     1  UNL1        0.0946
     41 N          23.6077   72.4708   -0.2164 N.am    1  UNL1       -0.2994
     42 O          24.8665   72.9426    1.5467 O.2     1  UNL1       -0.2751
     43 H          23.1447   71.8011   -0.7443 H       1  UNL1        0.1496
     44 C          22.2115   77.2828   -2.8086 C.3     1  UNL1        0.1693
     45 O          22.5387   77.2558   -4.1994 O.3     1  UNL1       -0.3794
     46 H          22.4475   78.1612   -4.5259 H       1  UNL1        0.2105
@<TRIPOS>BOND
     1    29    30    1
     2    29    28    1
     3    29    36    1
     4    30    31    1
     5    30    41    1
     6    31    32    1
     7    31    34    1
     8    32    33    1
     9    32    35    1
    10    33    44    1
    11    33    36    1
    12    44    45    1
    13    39    40    1
    14    39    41   am
    15    39    42    2
    16    41    43    1
    17    28    25    1
    18    34    37    1
    19    35    38    1
    20    45    46    1
    21    15    16   ar
    22    15    20   ar
    23    15     6    1
    24    16    17   ar
    25    16    21    2
    26    17    18   ar
    27    17    23    1
    28    18    19   ar
    29    18    22    2
    30    19    20   ar
    31     6     7    1
    32     6    11    1
    33     7     8    1
    34     7     9    1
    35     8    13    1
    36     9    10    1
    37     9    12    1
    38    10    11    1
    39    10     5    1
    40    12    14    1
    41     5     4    1
    42     4     1    1
    43     1     2    2
    44     1     3    1
    45     1    24    1
    46    24    25    1
    47    25    26    2
    48    25    27    1
@<TRIPOS>MOLECULE
UD1
 46 48 0 0 0
SMALL
GASTEIGER

@<TRIPOS>ATOM
      1 P          21.0192   71.3527   -2.0098 P.3     1  UNL1        0.2189
      2 O          20.8015   72.8148   -1.9488 O.2     1  UNL1       -0.5170
      3 O          22.5555   71.0541   -2.3882 O.3     1  UNL1       -0.4371
      4 O          20.0572   70.7139   -3.1320 O.3     1  UNL1       -0.3112
      5 C          18.8923   70.2378   -2.4563 C.3     1  UNL1        0.1811
      6 C          17.1633   70.4296   -5.6029 C.3     1  UNL1        0.2383
      7 C          16.9668   68.9640   -5.1407 C.3     1  UNL1        0.1895
      8 O          15.7237   68.4419   -5.6112 O.3     1  UNL1       -0.3779
      9 C          16.9576   69.1080   -3.5965 C.3     1  UNL1        0.1713
     10 C          17.6640   70.4535   -3.3418 C.3     1  UNL1        0.1764
     11 O          18.0678   70.9754   -4.6192 O.3     1  UNL1       -0.3308
     12 O          15.6159   69.1390   -3.1049 O.3     1  UNL1       -0.3794
     13 H          15.6632   67.5312   -5.2912 H       1  UNL1        0.2106
     14 H          15.2102   68.2959   -3.3470 H       1  UNL1        0.2105
     15 N          17.7618   70.4776   -6.9373 N.ar    1  UNL1       -0.2551
     16 C          16.9699   70.4666   -8.0236 C.ar    1  UNL1        0.3323
     17 N          17.4928   70.5139   -9.2632 N.ar    1  UNL1       -0.2743
     18 C          18.8291   70.5639   -9.4355 C.ar    1  UNL1        0.2626
     19 C          19.6747   70.5700   -8.3007 C.ar    1  UNL1        0.0795
     20 C          19.1235   70.5273   -7.0688 C.ar    1  UNL1        0.0869
     21 O          15.7627   70.4218   -7.8845 O.2     1  UNL1       -0.2464
     22 O          19.3032   70.6019  -10.5558 O.2     1  UNL1       -0.2670
     23 H          16.9064   70.5100  -10.0354 H       1  UNL1        0.1734
     24 O          20.6813   70.6996   -0.5787 O.3     1  UNL1       -0.2703
     25 P          21.2881   71.6869    0.5378 P.3     1  UNL1        0.2208
     26 O          22.3247   72.5465   -0.0750 O.2     1  UNL1       -0.5170
     27 O          21.9447   70.8181    1.7237 O.3     1  UNL1       -0.4371
     28 O          20.1125   72.6084    1.1371 O.3     1  UNL1       -0.2865
     29 C          20.6675   73.9093    1.3386 C.3     1  UNL1        0.2611
     30 C          20.5094   74.3038    2.8081 C.3     1  UNL1        0.1582
     31 C          19.0210   74.2879    3.1740 C.3     1  UNL1        0.1625
     32 C          18.2616   75.1695    2.1769 C.3     1  UNL1        0.1686
     33 C          18.5870   74.7077    0.7549 C.3     1  UNL1        0.1760
     34 O          18.8478   74.7976    4.4975 O.3     1  UNL1       -0.3801
     35 O          16.8566   75.0528    2.4091 O.3     1  UNL1       -0.3794
     36 O          19.9858   74.8488    0.5103 O.3     1  UNL1       -0.3263
     37 H          17.8996   74.7692    4.6859 H       1  UNL1        0.2105
     38 H          16.4177   75.6218    1.7609 H       1  UNL1        0.2105
     39 C          21.9700   73.7909    4.6890 C.2     1  UNL1        0.2231
     40 C          22.7144   72.8086    5.5570 C.3     1  UNL1        0.0946
     41 N          21.2323   73.3500    3.6519 N.am    1  UNL1       -0.2994
     42 O          22.0358   74.9786    4.9237 O.2     1  UNL1       -0.2751
     43 H          21.1796   72.3995    3.4636 H       1  UNL1        0.1496
     44 C          17.8080   75.5612   -0.2480 C.3     1  UNL1        0.1693
     45 O          16.6298   74.8624   -0.6550 O.3     1  UNL1       -0.3794
     46 H          16.1696   75.4332   -1.2851 H       1  UNL1        0.2105
@<TRIPOS>BOND
     1    29    30    1
     2    29    28    1
     3    29    36    1
     4    30    31    1
     5    30    41    1
     6    31    32    1
     7    31    34    1
     8    32    33    1
     9    32    35    1
    10    33    44    1
    11    33    36    1
    12    44    45    1
    13    39    40    1
    14    39    41   am
    15    39    42    2
    16    41    43    1
    17    28    25    1
    18    34    37    1
    19    35    38    1
    20    45    46    1
    21    15    16   ar
    22    15    20   ar
    23    15     6    1
    24    16    17   ar
    25    16    21    2
    26    17    18   ar
    27    17    23    1
    28    18    19   ar
    29    18    22    2
    30    19    20   ar
    31     6     7    1
    32     6    11    1
    33     7     8    1
    34     7     9    1
    35     8    13    1
    36     9    10    1
    37     9    12    1
    38    10    11    1
    39    10     5    1
    40    12    14    1
    41     5     4    1
    42     4     1    1
    43     1     2    2
    44     1     3    1
    45     1    24    1
    46    24    25    1
    47    25    26    2
    48    25    27    1
@<TRIPOS>MOLECULE
UD1
 46 48 0 0 0
SMALL
GASTEIGER

@<TRIPOS>ATOM
      1 P          20.8507   71.6631   -2.2610 P.3     1  UNL1        0.2189
      2 O          21.5232   72.9721   -2.1090 O.2     1  UNL1       -0.5170
      3 O          21.8389   70.6358   -3.0100 O.3     1  UNL1       -0.4371
      4 O          19.5092   71.8475   -3.1324 O.3     1  UNL1       -0.3112
      5 C          18.4904   71.0785   -2.4914 C.3     1  UNL1        0.1811
      6 C          16.9218   70.5537   -5.6838 C.3     1  UNL1        0.2383
      7 C          16.9983   69.1412   -5.0519 C.3     1  UNL1        0.1895
      8 O          15.9102   68.3261   -5.4890 O.3     1  UNL1       -0.3779
      9 C          16.8812   69.4550   -3.5377 C.3     1  UNL1        0.1713
     10 C          17.2909   70.9365   -3.4296 C.3     1  UNL1        0.1764
     11 O          17.6475   71.3810   -4.7497 O.3     1  UNL1       -0.3308
     12 O          15.5369   69.2671   -3.0902 O.3     1  UNL1       -0.3794
     13 H          16.0163   67.4647   -5.0622 H       1  UNL1        0.2106
     14 H          15.3206   68.3369   -3.2387 H       1  UNL1        0.2105
     15 N          17.5665   70.5707   -6.9973 N.ar    1  UNL1       -0.2551
     16 C          16.8181   70.4570   -8.1084 C.ar    1  UNL1        0.3323
     17 N          17.3838   70.4735   -9.3298 N.ar    1  UNL1       -0.2743
     18 C          18.7204   70.5959   -9.4580 C.ar    1  UNL1        0.2626
     19 C          19.5208   70.7104   -8.2965 C.ar    1  UNL1        0.0795
     20 C          18.9268   70.6964   -7.0839 C.ar    1  UNL1        0.0869
     21 O          15.6113   70.3459   -8.0091 O.2     1  UNL1       -0.2464
     22 O          19.2334   70.6061  -10.5617 O.2     1  UNL1       -0.2670
     23 H          16.8283   70.3951  -10.1206 H       1  UNL1        0.1734
     24 O          20.4717   71.0827   -0.8090 O.3     1  UNL1       -0.2703
     25 P          21.8179   71.1184    0.0718 P.3     1  UNL1        0.2208
     26 O          22.9920   70.9678   -0.8157 O.2     1  UNL1       -0.5170
     27 O          21.7943   69.9126    1.1385 O.3     1  UNL1       -0.4371
     28 O          21.9125   72.5223    0.8531 O.3     1  UNL1       -0.2865
     29 C          20.7131   72.6523    1.6185 C.3     1  UNL1        0.2611
     30 C          20.2346   74.1042    1.5649 C.3     1  UNL1        0.1582
     31 C          21.3340   75.0152    2.1228 C.3     1  UNL1        0.1625
     32 C          21.7299   74.5101    3.5143 C.3     1  UNL1        0.1686
     33 C          22.0986   73.0280    3.4202 C.3     1  UNL1        0.1760
     34 O          20.8443   76.3541    2.2172 O.3     1  UNL1       -0.3801
     35 O          22.8527   75.2540    3.9912 O.3     1  UNL1       -0.3794
     36 O          20.9708   72.2783    2.9702 O.3     1  UNL1       -0.3263
     37 H          21.5663   76.8914    2.5712 H       1  UNL1        0.2105
     38 H          23.0686   74.9038    4.8671 H       1  UNL1        0.2105
     39 C          18.6817   74.4424   -0.2812 C.2     1  UNL1        0.2231
     40 C          18.3870   74.8233   -1.7096 C.3     1  UNL1        0.0946
     41 N          19.9477   74.4746    0.1775 N.am    1  UNL1       -0.2994
     42 O          17.7791   74.1062    0.4552 O.2     1  UNL1       -0.2751
     43 H          20.6703   74.7435   -0.4117 H       1  UNL1        0.1496
     44 C          22.5268   72.5217    4.7991 C.3     1  UNL1        0.1693
     45 O          21.7525   73.1735    5.8079 O.3     1  UNL1       -0.3794
     46 H          22.0533   72.8272    6.6589 H       1  UNL1        0.2105
@<TRIPOS>BOND
     1    29    30    1
     2    29    28    1
     3    29    36    1
     4    30    31    1
     5    30    41    1
     6    31    32    1
     7    31    34    1
     8    32    33    1
     9    32    35    1
    10    33    44    1
    11    33    36    1
    12    44    45    1
    13    39    40    1
    14    39    41   am
    15    39    42    2
    16    41    43    1
    17    28    25    1
    18    34    37    1
    19    35    38    1
    20    45    46    1
    21    15    16   ar
    22    15    20   ar
    23    15     6    1
    24    16    17   ar
    25    16    21    2
    26    17    18   ar
    27    17    23    1
    28    18    19   ar
    29    18    22    2
    30    19    20   ar
    31     6     7    1
    32     6    11    1
    33     7     8    1
    34     7     9    1
    35     8    13    1
    36     9    10    1
    37     9    12    1
    38    10    11    1
    39    10     5    1
    40    12    14    1
    41     5     4    1
    42     4     1    1
    43     1     2    2
    44     1     3    1
    45     1    24    1
    46    24    25    1
    47    25    26    2
    48    25    27    1
@<TRIPOS>MOLECULE
UD1
 46 48 0 0 0
SMALL
GASTEIGER

@<TRIPOS>ATOM
      1 P          20.4759   72.3579   -1.9409 P.3     1  UNL1        0.2189
      2 O          20.2321   73.7460   -1.4911 O.2     1  UNL1       -0.5170
      3 O          21.9830   72.2293   -2.4927 O.3     1  UNL1       -0.4371
      4 O          19.4411   71.9860   -3.1173 O.3     1  UNL1       -0.3112
      5 C          18.4996   71.0650   -2.5645 C.3     1  UNL1        0.1811
      6 C          16.9331   70.5462   -5.7589 C.3     1  UNL1        0.2383
      7 C          16.9917   69.1353   -5.1217 C.3     1  UNL1        0.1895
      8 O          15.8955   68.3312   -5.5584 O.3     1  UNL1       -0.3779
      9 C          16.8745   69.4561   -3.6089 C.3     1  UNL1        0.1713
     10 C          17.3009   70.9333   -3.5053 C.3     1  UNL1        0.1764
     11 O          17.6659   71.3687   -4.8261 O.3     1  UNL1       -0.3308
     12 O          15.5270   69.2854   -3.1642 O.3     1  UNL1       -0.3794
     13 H          15.9906   67.4702   -5.1282 H       1  UNL1        0.2106
     14 H          15.3004   68.3572   -3.3097 H       1  UNL1        0.2105
     15 N          17.5812   70.5509   -7.0709 N.ar    1  UNL1       -0.2551
     16 C          16.8326   70.4640   -8.1842 C.ar    1  UNL1        0.3323
     17 N          17.4016   70.4700   -9.4042 N.ar    1  UNL1       -0.2743
     18 C          18.7414   70.5546   -9.5288 C.ar    1  UNL1        0.2626
     19 C          19.5419   70.6406   -8.3648 C.ar    1  UNL1        0.0795
     20 C          18.9448   70.6379   -7.1537 C.ar    1  UNL1        0.0869
     21 O          15.6229   70.3872   -8.0882 O.2     1  UNL1       -0.2464
     22 O          19.2572   70.5552  -10.6312 O.2     1  UNL1       -0.2670
     23 H          16.8459   70.4113  -10.1967 H       1  UNL1        0.1734
     24 O          20.2680   71.3489   -0.7049 O.3     1  UNL1       -0.2703
     25 P          21.7078   71.1604   -0.0114 P.3     1  UNL1        0.2208
     26 O          22.7009   70.7687   -1.0356 O.2     1  UNL1       -0.5170
     27 O          21.6163   70.0120    1.1133 O.3     1  UNL1       -0.4371
     28 O          22.1605   72.5450    0.6730 O.3     1  UNL1       -0.2865
     29 C          22.0322   72.3706    2.0852 C.3     1  UNL1        0.2611
     30 C          21.9708   73.7421    2.7599 C.3     1  UNL1        0.1582
     31 C          23.2465   74.5232    2.4248 C.3     1  UNL1        0.1625
     32 C          24.4594   73.6654    2.8006 C.3     1  UNL1        0.1686
     33 C          24.3345   72.3005    2.1202 C.3     1  UNL1        0.1760
     34 O          23.2701   75.7433    3.1679 O.3     1  UNL1       -0.3801
     35 O          25.6560   74.3116    2.3625 O.3     1  UNL1       -0.3794
     36 O          23.1543   71.6405    2.5764 O.3     1  UNL1       -0.3263
     37 H          24.0869   76.2015    2.9268 H       1  UNL1        0.2105
     38 H          26.3929   73.7387    2.6179 H       1  UNL1        0.2105
     39 C          19.6554   74.4676    2.9759 C.2     1  UNL1        0.2231
     40 C          18.4531   75.2240    2.4712 C.3     1  UNL1        0.0946
     41 N          20.8027   74.4771    2.2703 N.am    1  UNL1       -0.2994
     42 O          19.5898   73.8498    4.0171 O.2     1  UNL1       -0.2751
     43 H          20.8554   74.9713    1.4369 H       1  UNL1        0.1496
     44 C          25.5575   71.4473    2.4631 C.3     1  UNL1        0.1693
     45 O          25.1511   70.0930    2.6699 O.3     1  UNL1       -0.3794
     46 H          25.9493   69.5909    2.8833 H       1  UNL1        0.2105
@<TRIPOS>BOND
     1    29    30    1
     2    29    28    1
     3    29    36    1
     4    30    31    1
     5    30    41    1
     6    31    32    1
     7    31    34    1
     8    32    33    1
     9    32    35    1
    10    33    44    1
    11    33    36    1
    12    44    45    1
    13    39    40    1
    14    39    41   am
    15    39    42    2
    16    41    43    1
    17    28    25    1
    18    34    37    1
    19    35    38    1
    20    45    46    1
    21    15    16   ar
    22    15    20   ar
    23    15     6    1
    24    16    17   ar
    25    16    21    2
    26    17    18   ar
    27    17    23    1
    28    18    19   ar
    29    18    22    2
    30    19    20   ar
    31     6     7    1
    32     6    11    1
    33     7     8    1
    34     7     9    1
    35     8    13    1
    36     9    10    1
    37     9    12    1
    38    10    11    1
    39    10     5    1
    40    12    14    1
    41     5     4    1
    42     4     1    1
    43     1     2    2
    44     1     3    1
    45     1    24    1
    46    24    25    1
    47    25    26    2
    48    25    27    1
@<TRIPOS>MOLECULE
UD1
 46 48 0 0 0
SMALL
GASTEIGER

@<TRIPOS>ATOM
      1 P          20.8594   71.7249   -1.9471 P.3     1  UNL1        0.2189
      2 O          21.3811   73.0889   -2.1836 O.2     1  UNL1       -0.5170
      3 O          22.0672   70.6643   -2.0413 O.3     1  UNL1       -0.4371
      4 O          19.7508   71.3744   -3.0612 O.3     1  UNL1       -0.3112
      5 C          18.6336   70.8125   -2.3709 C.3     1  UNL1        0.1811
      6 C          16.9993   70.5358   -5.5615 C.3     1  UNL1        0.2383
      7 C          16.9871   69.0947   -4.9928 C.3     1  UNL1        0.1895
      8 O          15.8420   68.3744   -5.4501 O.3     1  UNL1       -0.3779
      9 C          16.9076   69.3483   -3.4649 C.3     1  UNL1        0.1713
     10 C          17.4173   70.7928   -3.2980 C.3     1  UNL1        0.1764
     11 O          17.7890   71.2706   -4.6022 O.3     1  UNL1       -0.3308
     12 O          15.5585   69.2310   -3.0078 O.3     1  UNL1       -0.3794
     13 H          15.8944   67.4898   -5.0626 H       1  UNL1        0.2106
     14 H          15.2784   68.3249   -3.1936 H       1  UNL1        0.2105
     15 N          17.6297   70.5678   -6.8817 N.ar    1  UNL1       -0.2551
     16 C          16.8696   70.4635   -7.9857 C.ar    1  UNL1        0.3323
     17 N          17.4220   70.4938   -9.2129 N.ar    1  UNL1       -0.2743
     18 C          18.7568   70.6211   -9.3543 C.ar    1  UNL1        0.2626
     19 C          19.5694   70.7259   -8.2004 C.ar    1  UNL1        0.0795
     20 C          18.9887   70.6980   -6.9816 C.ar    1  UNL1        0.0869
     21 O          15.6642   70.3482   -7.8745 O.2     1  UNL1       -0.2464
     22 O          19.2578   70.6438  -10.4633 O.2     1  UNL1       -0.2670
     23 H          16.8581   70.4221   -9.9985 H       1  UNL1        0.1734
     24 O          20.1922   71.6514   -0.4848 O.3     1  UNL1       -0.2703
     25 P          21.3977   71.4871    0.5684 P.3     1  UNL1        0.2208
     26 O          22.6216   72.1101    0.0182 O.2     1  UNL1       -0.5170
     27 O          21.6670   69.9227    0.8371 O.3     1  UNL1       -0.4371
     28 O          21.0045   72.2079    1.9527 O.3     1  UNL1       -0.2865
     29 C          21.7460   73.4278    2.0100 C.3     1  UNL1        0.2611
     30 C          22.7140   73.3754    3.1933 C.3     1  UNL1        0.1582
     31 C          21.9157   73.1662    4.4850 C.3     1  UNL1        0.1625
     32 C          20.8351   74.2490    4.5741 C.3     1  UNL1        0.1686
     33 C          20.0068   74.2335    3.2876 C.3     1  UNL1        0.1760
     34 O          22.7909   73.2647    5.6101 O.3     1  UNL1       -0.3801
     35 O          19.9868   73.9867    5.6936 O.3     1  UNL1       -0.3794
     36 O          20.8461   74.5223    2.1703 O.3     1  UNL1       -0.3263
     37 H          22.2485   73.1269    6.3989 H       1  UNL1        0.2105
     38 H          19.3222   74.6898    5.7118 H       1  UNL1        0.2105
     39 C          24.9056   72.5048    2.5824 C.2     1  UNL1        0.2231
     40 C          25.8700   71.3616    2.3941 C.3     1  UNL1        0.0946
     41 N          23.6513   72.2652    3.0107 N.am    1  UNL1       -0.2994
     42 O          25.2588   73.6408    2.3477 O.2     1  UNL1       -0.2751
     43 H          23.3684   71.3562    3.1983 H       1  UNL1        0.1496
     44 C          18.9037   75.2898    3.3800 C.3     1  UNL1        0.1693
     45 O          17.7267   74.7026    3.9384 O.3     1  UNL1       -0.3794
     46 H          17.0582   75.3998    3.9787 H       1  UNL1        0.2105
@<TRIPOS>BOND
     1    29    30    1
     2    29    28    1
     3    29    36    1
     4    30    31    1
     5    30    41    1
     6    31    32    1
     7    31    34    1
     8    32    33    1
     9    32    35    1
    10    33    44    1
    11    33    36    1
    12    44    45    1
    13    39    40    1
    14    39    41   am
    15    39    42    2
    16    41    43    1
    17    28    25    1
    18    34    37    1
    19    35    38    1
    20    45    46    1
    21    15    16   ar
    22    15    20   ar
    23    15     6    1
    24    16    17   ar
    25    16    21    2
    26    17    18   ar
    27    17    23    1
    28    18    19   ar
    29    18    22    2
    30    19    20   ar
    31     6     7    1
    32     6    11    1
    33     7     8    1
    34     7     9    1
    35     8    13    1
    36     9    10    1
    37     9    12    1
    38    10    11    1
    39    10     5    1
    40    12    14    1
    41     5     4    1
    42     4     1    1
    43     1     2    2
    44     1     3    1
    45     1    24    1
    46    24    25    1
    47    25    26    2
    48    25    27    1
@<TRIPOS>MOLECULE
UD1
 46 48 0 0 0
SMALL
GASTEIGER

@<TRIPOS>ATOM
      1 P          20.6869   71.1917   -3.0335 P.3     1  UNL1        0.2189
      2 O          20.2180   72.5636   -2.7394 O.2     1  UNL1       -0.5170
      3 O          21.3450   71.1527   -4.5026 O.3     1  UNL1       -0.4371
      4 O          19.4392   70.1753   -2.9784 O.3     1  UNL1       -0.3112
      5 C          18.3311   70.9084   -2.4538 C.3     1  UNL1        0.1811
      6 C          16.8659   70.5517   -5.7178 C.3     1  UNL1        0.2383
      7 C          16.8649   69.1171   -5.1329 C.3     1  UNL1        0.1895
      8 O          15.7640   68.3602   -5.6375 O.3     1  UNL1       -0.3779
      9 C          16.7024   69.3848   -3.6140 C.3     1  UNL1        0.1713
     10 C          17.1636   70.8447   -3.4397 C.3     1  UNL1        0.1764
     11 O          17.5865   71.3186   -4.7296 O.3     1  UNL1       -0.3308
     12 O          15.3360   69.2348   -3.2228 O.3     1  UNL1       -0.3794
     13 H          15.8212   67.4816   -5.2372 H       1  UNL1        0.2106
     14 H          15.0904   68.3192   -3.4113 H       1  UNL1        0.2105
     15 N          17.5601   70.5872   -7.0055 N.ar    1  UNL1       -0.2551
     16 C          16.8526   70.5120   -8.1461 C.ar    1  UNL1        0.3323
     17 N          17.4643   70.5462   -9.3448 N.ar    1  UNL1       -0.2743
     18 C          18.8067   70.6479   -9.4199 C.ar    1  UNL1        0.2626
     19 C          19.5643   70.7218   -8.2268 C.ar    1  UNL1        0.0795
     20 C          18.9247   70.6907   -7.0380 C.ar    1  UNL1        0.0869
     21 O          15.6411   70.4202   -8.0948 O.2     1  UNL1       -0.2464
     22 O          19.3612   70.6740  -10.5030 O.2     1  UNL1       -0.2670
     23 H          16.9379   70.4957  -10.1575 H       1  UNL1        0.1734
     24 O          21.7841   70.7538   -1.9412 O.3     1  UNL1       -0.2703
     25 P          23.0709   71.6918   -2.1728 P.3     1  UNL1        0.2208
     26 O          22.6830   72.8709   -2.9779 O.2     1  UNL1       -0.5170
     27 O          24.2082   70.8610   -2.9528 O.3     1  UNL1       -0.4371
     28 O          23.6447   72.1787   -0.7501 O.3     1  UNL1       -0.2865
     29 C          22.8491   73.2929   -0.3416 C.3     1  UNL1        0.2611
     30 C          23.7635   74.4789   -0.0293 C.3     1  UNL1        0.1582
     31 C          24.7432   74.0781    1.0793 C.3     1  UNL1        0.1625
     32 C          23.9425   73.5408    2.2703 C.3     1  UNL1        0.1686
     33 C          23.0168   72.4233    1.7849 C.3     1  UNL1        0.1760
     34 O          25.5015   75.2195    1.4838 O.3     1  UNL1       -0.3801
     35 O          24.8397   73.0258    3.2559 O.3     1  UNL1       -0.3794
     36 O          22.1012   72.9406    0.8202 O.3     1  UNL1       -0.3263
     37 H          26.1033   74.9226    2.1802 H       1  UNL1        0.2105
     38 H          24.2952   72.6980    3.9857 H       1  UNL1        0.2105
     39 C          24.6962   76.1512   -1.5352 C.2     1  UNL1        0.2231
     40 C          25.4644   76.5348   -2.7741 C.3     1  UNL1        0.0946
     41 N          24.5101   74.8520   -1.2325 N.am    1  UNL1       -0.2994
     42 O          24.2448   77.0125   -0.8108 O.2     1  UNL1       -0.2751
     43 H          24.8710   74.1626   -1.8122 H       1  UNL1        0.1496
     44 C          22.2360   71.8575    2.9729 C.3     1  UNL1        0.1693
     45 O          20.8392   72.0891    2.7792 O.3     1  UNL1       -0.3794
     46 H          20.3849   71.7186    3.5480 H       1  UNL1        0.2105
@<TRIPOS>BOND
     1    29    30    1
     2    29    28    1
     3    29    36    1
     4    30    31    1
     5    30    41    1
     6    31    32    1
     7    31    34    1
     8    32    33    1
     9    32    35    1
    10    33    44    1
    11    33    36    1
    12    44    45    1
    13    39    40    1
    14    39    41   am
    15    39    42    2
    16    41    43    1
    17    28    25    1
    18    34    37    1
    19    35    38    1
    20    45    46    1
    21    15    16   ar
    22    15    20   ar
    23    15     6    1
    24    16    17   ar
    25    16    21    2
    26    17    18   ar
    27    17    23    1
    28    18    19   ar
    29    18    22    2
    30    19    20   ar
    31     6     7    1
    32     6    11    1
    33     7     8    1
    34     7     9    1
    35     8    13    1
    36     9    10    1
    37     9    12    1
    38    10    11    1
    39    10     5    1
    40    12    14    1
    41     5     4    1
    42     4     1    1
    43     1     2    2
    44     1     3    1
    45     1    24    1
    46    24    25    1
    47    25    26    2
    48    25    27    1
@<TRIPOS>MOLECULE
UD1
 46 48 0 0 0
SMALL
GASTEIGER

@<TRIPOS>ATOM
      1 P          16.3206   69.6617   -2.7760 P.3     1  UNL1        0.2189
      2 O          15.9680   69.0863   -4.0926 O.2     1  UNL1       -0.5170
      3 O          17.1153   68.5643   -1.9061 O.3     1  UNL1       -0.4371
      4 O          14.9758   70.0888   -2.0002 O.3     1  UNL1       -0.3112
      5 C          14.8211   69.1801   -0.9090 C.3     1  UNL1        0.1811
      6 C          12.0662   68.0979    1.1323 C.3     1  UNL1        0.2383
      7 C          12.4479   69.4877    1.7005 C.3     1  UNL1        0.1895
      8 O          11.3037   70.1521    2.2377 O.3     1  UNL1       -0.3779
      9 C          12.9729   70.2221    0.4395 C.3     1  UNL1        0.1713
     10 C          13.3424   69.0831   -0.5304 C.3     1  UNL1        0.1764
     11 O          13.0923   67.8414    0.1499 O.3     1  UNL1       -0.3308
     12 O          11.9511   71.0512   -0.1184 O.3     1  UNL1       -0.3794
     13 H          11.6079   71.0066    2.5737 H       1  UNL1        0.2106
     14 H          11.7221   71.7043    0.5562 H       1  UNL1        0.2105
     15 N          12.0934   67.0813    2.1845 N.ar    1  UNL1       -0.2551
     16 C          13.2717   66.5910    2.6070 C.ar    1  UNL1        0.3323
     17 N          13.3268   65.6581    3.5760 N.ar    1  UNL1       -0.2743
     18 C          12.1922   65.1912    4.1351 C.ar    1  UNL1        0.2626
     19 C          10.9446   65.6944    3.6956 C.ar    1  UNL1        0.0795
     20 C          10.9185   66.6336    2.7258 C.ar    1  UNL1        0.0869
     21 O          14.3037   67.0021    2.1125 O.2     1  UNL1       -0.2464
     22 O          12.2407   64.3443    5.0080 O.2     1  UNL1       -0.2670
     23 H          14.1857   65.3190    3.8719 H       1  UNL1        0.1734
     24 O          17.2517   70.9566   -2.9882 O.3     1  UNL1       -0.2703
     25 P          18.7606   70.4223   -3.1527 P.3     1  UNL1        0.2208
     26 O          18.7385   69.0164   -3.6129 O.2     1  UNL1       -0.5170
     27 O          19.5194   70.5104   -1.7355 O.3     1  UNL1       -0.4371
     28 O          19.5373   71.3282   -4.2328 O.3     1  UNL1       -0.2865
     29 C          20.6468   70.5580   -4.6986 C.3     1  UNL1        0.2611
     30 C          21.9333   71.3661   -4.5194 C.3     1  UNL1        0.1582
     31 C          21.8157   72.6764   -5.3062 C.3     1  UNL1        0.1625
     32 C          21.4501   72.3457   -6.7571 C.3     1  UNL1        0.1686
     33 C          20.1981   71.4661   -6.7675 C.3     1  UNL1        0.1760
     34 O          23.0641   73.3704   -5.2697 O.3     1  UNL1       -0.3801
     35 O          21.1920   73.5554   -7.4725 O.3     1  UNL1       -0.3794
     36 O          20.4611   70.2450   -6.0773 O.3     1  UNL1       -0.3263
     37 H          22.9450   74.1863   -5.7752 H       1  UNL1        0.2105
     38 H          20.9655   73.3017   -8.3785 H       1  UNL1        0.2105
     39 C          23.3075   71.3760   -2.5081 C.2     1  UNL1        0.2231
     40 C          23.5111   71.6811   -1.0460 C.3     1  UNL1        0.0946
     41 N          22.1317   71.6628   -3.0992 N.am    1  UNL1       -0.2994
     42 O          24.2022   70.8715   -3.1524 O.2     1  UNL1       -0.2751
     43 H          21.4155   72.0663   -2.5837 H       1  UNL1        0.1496
     44 C          19.8056   71.1569   -8.2137 C.3     1  UNL1        0.1693
     45 O          18.5091   71.6950   -8.4812 O.3     1  UNL1       -0.3794
     46 H          18.3003   71.4785   -9.4000 H       1  UNL1        0.2105
@<TRIPOS>BOND
     1    29    30    1
     2    29    28    1
     3    29    36    1
     4    30    31    1
     5    30    41    1
     6    31    32    1
     7    31    34    1
     8    32    33    1
     9    32    35    1
    10    33    44    1
    11    33    36    1
    12    44    45    1
    13    39    40    1
    14    39    41   am
    15    39    42    2
    16    41    43    1
    17    28    25    1
    18    34    37    1
    19    35    38    1
    20    45    46    1
    21    15    16   ar
    22    15    20   ar
    23    15     6    1
    24    16    17   ar
    25    16    21    2
    26    17    18   ar
    27    17    23    1
    28    18    19   ar
    29    18    22    2
    30    19    20   ar
    31     6     7    1
    32     6    11    1
    33     7     8    1
    34     7     9    1
    35     8    13    1
    36     9    10    1
    37     9    12    1
    38    10    11    1
    39    10     5    1
    40    12    14    1
    41     5     4    1
    42     4     1    1
    43     1     2    2
    44     1     3    1
    45     1    24    1
    46    24    25    1
    47    25    26    2
    48    25    27    1
@<TRIPOS>MOLECULE
UD1
 46 48 0 0 0
SMALL
GASTEIGER

@<TRIPOS>ATOM
      1 P          21.7481   72.5742   -6.4109 P.3     1  UNL1        0.2189
      2 O          20.8968   73.5923   -7.0648 O.2     1  UNL1       -0.5170
      3 O          23.2651   72.7312   -6.9272 O.3     1  UNL1       -0.4371
      4 O          21.2057   71.1040   -6.7810 O.3     1  UNL1       -0.3112
      5 C          20.6079   71.1970   -8.0750 C.3     1  UNL1        0.1811
      6 C          17.3800   70.1182   -6.9156 C.3     1  UNL1        0.2383
      7 C          17.0682   71.1867   -7.9933 C.3     1  UNL1        0.1895
      8 O          15.8330   70.9035   -8.6514 O.3     1  UNL1       -0.3779
      9 C          18.2640   71.0251   -8.9675 C.3     1  UNL1        0.1713
     10 C          19.3474   70.3319   -8.1188 C.3     1  UNL1        0.1764
     11 O          18.8171   70.1729   -6.7919 O.3     1  UNL1       -0.3308
     12 O          17.8948   70.2100  -10.0820 O.3     1  UNL1       -0.3794
     13 H          15.6978   71.6024   -9.3063 H       1  UNL1        0.2106
     14 H          17.1753   70.6680  -10.5367 H       1  UNL1        0.2105
     15 N          16.7392   70.4596   -5.6451 N.ar    1  UNL1       -0.2551
     16 C          16.4190   69.4842   -4.7771 C.ar    1  UNL1        0.3323
     17 N          15.8324   69.7693   -3.5994 N.ar    1  UNL1       -0.2743
     18 C          15.5468   71.0463   -3.2742 C.ar    1  UNL1        0.2626
     19 C          15.8731   72.0824   -4.1813 C.ar    1  UNL1        0.0795
     20 C          16.4658   71.7687   -5.3533 C.ar    1  UNL1        0.0869
     21 O          16.6703   68.3276   -5.0561 O.2     1  UNL1       -0.2464
     22 O          15.0122   71.3048   -2.2118 O.2     1  UNL1       -0.2670
     23 H          15.6127   69.0536   -2.9833 H       1  UNL1        0.1734
     24 O          21.6993   72.7781   -4.8156 O.3     1  UNL1       -0.2703
     25 P          23.0202   73.6037   -4.4119 P.3     1  UNL1        0.2208
     26 O          23.3275   74.5908   -5.4702 O.2     1  UNL1       -0.5170
     27 O          24.2595   72.5889   -4.2495 O.3     1  UNL1       -0.4371
     28 O          22.7705   74.3706   -3.0190 O.3     1  UNL1       -0.2865
     29 C          24.0388   74.4743   -2.3697 C.3     1  UNL1        0.2611
     30 C          23.8592   74.2355   -0.8695 C.3     1  UNL1        0.1582
     31 C          22.8788   75.2729   -0.3107 C.3     1  UNL1        0.1625
     32 C          23.3742   76.6715   -0.6935 C.3     1  UNL1        0.1686
     33 C          23.5875   76.7274   -2.2077 C.3     1  UNL1        0.1760
     34 O          22.8173   75.1559    1.1120 O.3     1  UNL1       -0.3801
     35 O          22.4008   77.6447   -0.3103 O.3     1  UNL1       -0.3794
     36 O          24.5792   75.7753   -2.5904 O.3     1  UNL1       -0.3263
     37 H          22.1907   75.8248    1.4205 H       1  UNL1        0.2105
     38 H          22.7516   78.5085   -0.5699 H       1  UNL1        0.2105
     39 C          23.7842   72.1440    0.3772 C.2     1  UNL1        0.2231
     40 C          23.2372   70.7578    0.6046 C.3     1  UNL1        0.0946
     41 N          23.3279   72.8890   -0.6479 N.am    1  UNL1       -0.2994
     42 O          24.6358   72.5886    1.1170 O.2     1  UNL1       -0.2751
     43 H          22.6465   72.5334   -1.2402 H       1  UNL1        0.1496
     44 C          24.0513   78.1304   -2.6047 C.3     1  UNL1        0.1693
     45 O          24.9186   78.6494   -1.5945 O.3     1  UNL1       -0.3794
     46 H          25.1870   79.5323   -1.8827 H       1  UNL1        0.2105
@<TRIPOS>BOND
     1    29    30    1
     2    29    28    1
     3    29    36    1
     4    30    31    1
     5    30    41    1
     6    31    32    1
     7    31    34    1
     8    32    33    1
     9    32    35    1
    10    33    44    1
    11    33    36    1
    12    44    45    1
    13    39    40    1
    14    39    41   am
    15    39    42    2
    16    41    43    1
    17    28    25    1
    18    34    37    1
    19    35    38    1
    20    45    46    1
    21    15    16   ar
    22    15    20   ar
    23    15     6    1
    24    16    17   ar
    25    16    21    2
    26    17    18   ar
    27    17    23    1
    28    18    19   ar
    29    18    22    2
    30    19    20   ar
    31     6     7    1
    32     6    11    1
    33     7     8    1
    34     7     9    1
    35     8    13    1
    36     9    10    1
    37     9    12    1
    38    10    11    1
    39    10     5    1
    40    12    14    1
    41     5     4    1
    42     4     1    1
    43     1     2    2
    44     1     3    1
    45     1    24    1
    46    24    25    1
    47    25    26    2
    48    25    27    1
@<TRIPOS>MOLECULE
UD1
 46 48 0 0 0
SMALL
GASTEIGER

@<TRIPOS>ATOM
      1 P          22.9178   72.2377   -3.5593 P.3     1  UNL1        0.2189
      2 O          24.1081   72.5388   -4.3847 O.2     1  UNL1       -0.5170
      3 O          22.2478   73.6145   -3.0613 O.3     1  UNL1       -0.4371
      4 O          23.3591   71.3636   -2.2810 O.3     1  UNL1       -0.3112
      5 C          23.2262   72.2078   -1.1365 C.3     1  UNL1        0.1811
      6 C          24.6645   71.6303    2.1077 C.3     1  UNL1        0.2383
      7 C          23.2772   72.2534    2.4035 C.3     1  UNL1        0.1895
      8 O          22.7507   71.7660    3.6382 O.3     1  UNL1       -0.3779
      9 C          22.4320   71.7504    1.2044 C.3     1  UNL1        0.1713
     10 C          23.4792   71.3921    0.1323 C.3     1  UNL1        0.1764
     11 O          24.7729   71.7143    0.6708 O.3     1  UNL1       -0.3308
     12 O          21.6726   70.5980    1.5760 O.3     1  UNL1       -0.3794
     13 H          21.8907   72.1906    3.7631 H       1  UNL1        0.2106
     14 H          21.0800   70.8719    2.2887 H       1  UNL1        0.2105
     15 N          25.7283   72.4017    2.7516 N.ar    1  UNL1       -0.2551
     16 C          26.9536   71.8649    2.8846 C.ar    1  UNL1        0.3323
     17 N          27.9522   72.5530    3.4691 N.ar    1  UNL1       -0.2743
     18 C          27.7344   73.7968    3.9417 C.ar    1  UNL1        0.2626
     19 C          26.4476   74.3718    3.8136 C.ar    1  UNL1        0.0795
     20 C          25.4656   73.6615    3.2183 C.ar    1  UNL1        0.0869
     21 O          27.1656   70.7440    2.4633 O.2     1  UNL1       -0.2464
     22 O          28.6352   74.4181    4.4746 O.2     1  UNL1       -0.2670
     23 H          28.8311   72.1520    3.5524 H       1  UNL1        0.1734
     24 O          21.8534   71.4077   -4.4351 O.3     1  UNL1       -0.2703
     25 P          20.4743   71.4004   -3.6060 P.3     1  UNL1        0.2208
     26 O          20.1206   72.7856   -3.2251 O.2     1  UNL1       -0.5170
     27 O          20.6504   70.5077   -2.2778 O.3     1  UNL1       -0.4371
     28 O          19.3022   70.7787   -4.5172 O.3     1  UNL1       -0.2865
     29 C          18.6288   71.8779   -5.1332 C.3     1  UNL1        0.2611
     30 C          17.1856   71.4765   -5.4432 C.3     1  UNL1        0.1582
     31 C          17.1930   70.2571   -6.3720 C.3     1  UNL1        0.1625
     32 C          18.0576   70.5784   -7.5957 C.3     1  UNL1        0.1686
     33 C          19.4363   71.0447   -7.1232 C.3     1  UNL1        0.1760
     34 O          15.8580   69.9643   -6.7884 O.3     1  UNL1       -0.3801
     35 O          18.1981   69.4073   -8.4023 O.3     1  UNL1       -0.3794
     36 O          19.3020   72.2300   -6.3399 O.3     1  UNL1       -0.3263
     37 H          15.9094   69.1926   -7.3691 H       1  UNL1        0.2105
     38 H          18.7487   69.6534   -9.1592 H       1  UNL1        0.2105
     39 C          16.4096   69.8571   -3.7970 C.2     1  UNL1        0.2231
     40 C          15.6954   69.5117   -2.5153 C.3     1  UNL1        0.0946
     41 N          16.4924   71.1404   -4.1979 N.am    1  UNL1       -0.2994
     42 O          16.9095   68.9796   -4.4681 O.2     1  UNL1       -0.2751
     43 H          16.0922   71.8428   -3.6612 H       1  UNL1        0.1496
     44 C          20.3185   71.3371   -8.3387 C.3     1  UNL1        0.1693
     45 O          21.1049   72.5035   -8.0874 O.3     1  UNL1       -0.3794
     46 H          21.6445   72.6524   -8.8756 H       1  UNL1        0.2105
@<TRIPOS>BOND
     1    29    30    1
     2    29    28    1
     3    29    36    1
     4    30    31    1
     5    30    41    1
     6    31    32    1
     7    31    34    1
     8    32    33    1
     9    32    35    1
    10    33    44    1
    11    33    36    1
    12    44    45    1
    13    39    40    1
    14    39    41   am
    15    39    42    2
    16    41    43    1
    17    28    25    1
    18    34    37    1
    19    35    38    1
    20    45    46    1
    21    15    16   ar
    22    15    20   ar
    23    15     6    1
    24    16    17   ar
    25    16    21    2
    26    17    18   ar
    27    17    23    1
    28    18    19   ar
    29    18    22    2
    30    19    20   ar
    31     6     7    1
    32     6    11    1
    33     7     8    1
    34     7     9    1
    35     8    13    1
    36     9    10    1
    37     9    12    1
    38    10    11    1
    39    10     5    1
    40    12    14    1
    41     5     4    1
    42     4     1    1
    43     1     2    2
    44     1     3    1
    45     1    24    1
    46    24    25    1
    47    25    26    2
    48    25    27    1
@<TRIPOS>MOLECULE
UD1
 46 48 0 0 0
SMALL
GASTEIGER

@<TRIPOS>ATOM
      1 P          22.7956   71.4504   -2.9859 P.3     1  UNL1        0.2189
      2 O          24.1707   70.9088   -3.0524 O.2     1  UNL1       -0.5170
      3 O          22.5586   72.4654   -4.2132 O.3     1  UNL1       -0.4371
      4 O          22.5956   72.2361   -1.5947 O.3     1  UNL1       -0.3112
      5 C          23.7310   71.9347   -0.7822 C.3     1  UNL1        0.1811
      6 C          23.0847   71.9368    2.7547 C.3     1  UNL1        0.2383
      7 C          21.7397   72.3620    2.1140 C.3     1  UNL1        0.1895
      8 O          20.6354   71.9313    2.9105 O.3     1  UNL1       -0.3779
      9 C          21.7718   71.6085    0.7589 C.3     1  UNL1        0.1713
     10 C          23.2662   71.3077    0.5331 C.3     1  UNL1        0.1764
     11 O          23.9913   71.8842    1.6327 O.3     1  UNL1       -0.3308
     12 O          21.0181   70.3970    0.8421 O.3     1  UNL1       -0.3794
     13 H          19.8325   72.2264    2.4591 H       1  UNL1        0.2106
     14 H          20.1068   70.6483    1.0434 H       1  UNL1        0.2105
     15 N          23.5309   72.9295    3.7328 N.ar    1  UNL1       -0.2551
     16 C          24.6525   73.6341    3.5028 C.ar    1  UNL1        0.3323
     17 N          25.0844   74.5564    4.3832 N.ar    1  UNL1       -0.2743
     18 C          24.3985   74.7825    5.5218 C.ar    1  UNL1        0.2626
     19 C          23.2194   74.0435    5.7794 C.ar    1  UNL1        0.0795
     20 C          22.8058   73.1283    4.8768 C.ar    1  UNL1        0.0869
     21 O          25.2819   73.4416    2.4804 O.2     1  UNL1       -0.2464
     22 O          24.7908   75.6128    6.3207 O.2     1  UNL1       -0.2670
     23 H          25.8929   75.0589    4.1989 H       1  UNL1        0.1734
     24 O          21.7377   70.2415   -3.0762 O.3     1  UNL1       -0.2703
     25 P          20.2736   70.8932   -2.9313 P.3     1  UNL1        0.2208
     26 O          20.3939   72.3662   -2.8638 O.2     1  UNL1       -0.5170
     27 O          19.5744   70.3504   -1.5864 O.3     1  UNL1       -0.4371
     28 O          19.3753   70.4860   -4.2033 O.3     1  UNL1       -0.2865
     29 C          18.8748   71.7014   -4.7633 C.3     1  UNL1        0.2611
     30 C          17.4124   71.5066   -5.1674 C.3     1  UNL1        0.1582
     31 C          17.3215   70.3641   -6.1852 C.3     1  UNL1        0.1625
     32 C          18.2835   70.6594   -7.3408 C.3     1  UNL1        0.1686
     33 C          19.6811   70.9151   -6.7728 C.3     1  UNL1        0.1760
     34 O          15.9852   70.2706   -6.6822 O.3     1  UNL1       -0.3801
     35 O          18.3239   69.5395   -8.2272 O.3     1  UNL1       -0.3794
     36 O          19.6500   72.0501   -5.9083 O.3     1  UNL1       -0.3263
     37 H          15.9736   69.5412   -7.3171 H       1  UNL1        0.2105
     38 H          18.9403   69.7671   -8.9377 H       1  UNL1        0.2105
     39 C          16.4137   69.8849   -3.6485 C.2     1  UNL1        0.2231
     40 C          15.5947   69.5426   -2.4302 C.3     1  UNL1        0.0946
     41 N          16.6172   71.1735   -3.9838 N.am    1  UNL1       -0.2994
     42 O          16.8892   69.0001   -4.3276 O.2     1  UNL1       -0.2751
     43 H          16.2366   71.8818   -3.4406 H       1  UNL1        0.1496
     44 C          20.6567   71.1792   -7.9216 C.3     1  UNL1        0.1693
     45 O          19.9265   71.5630   -9.0885 O.3     1  UNL1       -0.3794
     46 H          20.5767   71.7194   -9.7866 H       1  UNL1        0.2105
@<TRIPOS>BOND
     1    29    30    1
     2    29    28    1
     3    29    36    1
     4    30    31    1
     5    30    41    1
     6    31    32    1
     7    31    34    1
     8    32    33    1
     9    32    35    1
    10    33    44    1
    11    33    36    1
    12    44    45    1
    13    39    40    1
    14    39    41   am
    15    39    42    2
    16    41    43    1
    17    28    25    1
    18    34    37    1
    19    35    38    1
    20    45    46    1
    21    15    16   ar
    22    15    20   ar
    23    15     6    1
    24    16    17   ar
    25    16    21    2
    26    17    18   ar
    27    17    23    1
    28    18    19   ar
    29    18    22    2
    30    19    20   ar
    31     6     7    1
    32     6    11    1
    33     7     8    1
    34     7     9    1
    35     8    13    1
    36     9    10    1
    37     9    12    1
    38    10    11    1
    39    10     5    1
    40    12    14    1
    41     5     4    1
    42     4     1    1
    43     1     2    2
    44     1     3    1
    45     1    24    1
    46    24    25    1
    47    25    26    2
    48    25    27    1
@<TRIPOS>MOLECULE
UD1
 46 48 0 0 0
SMALL
GASTEIGER

@<TRIPOS>ATOM
      1 P          20.5312   71.0049   -1.7999 P.3     1  UNL1        0.2189
      2 O          20.7624   70.5770   -0.4027 O.2     1  UNL1       -0.5170
      3 O          20.4494   72.6117   -1.8626 O.3     1  UNL1       -0.4371
      4 O          19.1468   70.3769   -2.3308 O.3     1  UNL1       -0.3112
      5 C          18.2115   71.4529   -2.4198 C.3     1  UNL1        0.1811
      6 C          16.8816   70.5362   -5.6320 C.3     1  UNL1        0.2383
      7 C          17.1559   69.1850   -4.9255 C.3     1  UNL1        0.1895
      8 O          16.2310   68.1859   -5.3563 O.3     1  UNL1       -0.3779
      9 C          16.9271   69.5448   -3.4344 C.3     1  UNL1        0.1713
     10 C          17.0903   71.0764   -3.3896 C.3     1  UNL1        0.1764
     11 O          17.4262   71.5117   -4.7180 O.3     1  UNL1       -0.3308
     12 O          15.6125   69.1630   -3.0237 O.3     1  UNL1       -0.3794
     13 H          16.4553   67.3733   -4.8821 H       1  UNL1        0.2106
     14 H          15.5537   68.2043   -3.1309 H       1  UNL1        0.2105
     15 N          17.5696   70.5969   -6.9221 N.ar    1  UNL1       -0.2551
     16 C          16.8603   70.5059   -8.0605 C.ar    1  UNL1        0.3323
     17 N          17.4663   70.5627   -9.2612 N.ar    1  UNL1       -0.2743
     18 C          18.8049   70.7034   -9.3407 C.ar    1  UNL1        0.2626
     19 C          19.5645   70.7945   -8.1501 C.ar    1  UNL1        0.0795
     20 C          18.9305   70.7401   -6.9591 C.ar    1  UNL1        0.0869
     21 O          15.6522   70.3787   -8.0051 O.2     1  UNL1       -0.2464
     22 O          19.3544   70.7500  -10.4258 O.2     1  UNL1       -0.2670
     23 H          16.9385   70.5002  -10.0722 H       1  UNL1        0.1734
     24 O          21.7430   70.4917   -2.7258 O.3     1  UNL1       -0.2703
     25 P          23.0278   71.3831   -2.3462 P.3     1  UNL1        0.2208
     26 O          24.2358   70.7963   -2.9667 O.2     1  UNL1       -0.5170
     27 O          23.2075   71.4129   -0.7465 O.3     1  UNL1       -0.4371
     28 O          22.8207   72.8839   -2.8895 O.3     1  UNL1       -0.2865
     29 C          23.9744   73.2057   -3.6683 C.3     1  UNL1        0.2611
     30 C          24.3330   74.6775   -3.4554 C.3     1  UNL1        0.1582
     31 C          23.1413   75.5485   -3.8684 C.3     1  UNL1        0.1625
     32 C          22.7346   75.1767   -5.2982 C.3     1  UNL1        0.1686
     33 C          22.4936   73.6674   -5.3713 C.3     1  UNL1        0.1760
     34 O          23.5146   76.9267   -3.8163 O.3     1  UNL1       -0.3801
     35 O          21.5364   75.8710   -5.6502 O.3     1  UNL1       -0.3794
     36 O          23.6961   72.9709   -5.0469 O.3     1  UNL1       -0.3263
     37 H          22.7374   77.4370   -4.0826 H       1  UNL1        0.2105
     38 H          21.3162   75.6080   -6.5551 H       1  UNL1        0.2105
     39 C          23.6640   75.2606   -1.1868 C.2     1  UNL1        0.2231
     40 C          23.9829   75.4973    0.2674 C.3     1  UNL1        0.0946
     41 N          24.6422   74.9070   -2.0426 N.am    1  UNL1       -0.2994
     42 O          22.5266   75.3891   -1.5868 O.2     1  UNL1       -0.2751
     43 H          25.5525   74.8044   -1.7228 H       1  UNL1        0.1496
     44 C          22.0552   73.2902   -6.7879 C.3     1  UNL1        0.1693
     45 O          23.0530   72.4644   -7.3917 O.3     1  UNL1       -0.3794
     46 H          22.7386   72.2502   -8.2804 H       1  UNL1        0.2105
@<TRIPOS>BOND
     1    29    30    1
     2    29    28    1
     3    29    36    1
     4    30    31    1
     5    30    41    1
     6    31    32    1
     7    31    34    1
     8    32    33    1
     9    32    35    1
    10    33    44    1
    11    33    36    1
    12    44    45    1
    13    39    40    1
    14    39    41   am
    15    39    42    2
    16    41    43    1
    17    28    25    1
    18    34    37    1
    19    35    38    1
    20    45    46    1
    21    15    16   ar
    22    15    20   ar
    23    15     6    1
    24    16    17   ar
    25    16    21    2
    26    17    18   ar
    27    17    23    1
    28    18    19   ar
    29    18    22    2
    30    19    20   ar
    31     6     7    1
    32     6    11    1
    33     7     8    1
    34     7     9    1
    35     8    13    1
    36     9    10    1
    37     9    12    1
    38    10    11    1
    39    10     5    1
    40    12    14    1
    41     5     4    1
    42     4     1    1
    43     1     2    2
    44     1     3    1
    45     1    24    1
    46    24    25    1
    47    25    26    2
    48    25    27    1
@<TRIPOS>MOLECULE
UD1
 46 48 0 0 0
SMALL
GASTEIGER

@<TRIPOS>ATOM
      1 P          21.8964   72.4482   -6.3125 P.3     1  UNL1        0.2189
      2 O          20.6903   73.0657   -5.7185 O.2     1  UNL1       -0.5170
      3 O          22.5637   73.4731   -7.3598 O.3     1  UNL1       -0.4371
      4 O          21.4833   71.0932   -7.0781 O.3     1  UNL1       -0.3112
      5 C          20.5851   71.4663   -8.1242 C.3     1  UNL1        0.1811
      6 C          17.4775   70.1275   -6.9085 C.3     1  UNL1        0.2383
      7 C          17.0601   71.1681   -7.9777 C.3     1  UNL1        0.1895
      8 O          15.8400   70.7860   -8.6138 O.3     1  UNL1       -0.3779
      9 C          18.2469   71.1052   -8.9741 C.3     1  UNL1        0.1713
     10 C          19.3984   70.5016   -8.1470 C.3     1  UNL1        0.1764
     11 O          18.9074   70.2988   -6.8109 O.3     1  UNL1       -0.3308
     12 O          17.9247   70.2638  -10.0836 O.3     1  UNL1       -0.3794
     13 H          15.6364   71.4721   -9.2644 H       1  UNL1        0.2106
     14 H          17.1620   70.6621  -10.5239 H       1  UNL1        0.2105
     15 N          16.8346   70.4146   -5.6256 N.ar    1  UNL1       -0.2551
     16 C          16.4127   69.4006   -4.8502 C.ar    1  UNL1        0.3323
     17 N          15.8217   69.6350   -3.6636 N.ar    1  UNL1       -0.2743
     18 C          15.6341   70.8998   -3.2360 C.ar    1  UNL1        0.2626
     19 C          16.0680   71.9768   -4.0451 C.ar    1  UNL1        0.0795
     20 C          16.6627   71.7132   -5.2284 C.ar    1  UNL1        0.0869
     21 O          16.5748   68.2543   -5.2221 O.2     1  UNL1       -0.2464
     22 O          15.0955   71.1130   -2.1655 O.2     1  UNL1       -0.2670
     23 H          15.5278   68.8914   -3.1150 H       1  UNL1        0.1734
     24 O          22.9527   72.1058   -5.1481 O.3     1  UNL1       -0.2703
     25 P          23.1461   73.4504   -4.2856 P.3     1  UNL1        0.2208
     26 O          22.5762   74.5975   -5.0261 O.2     1  UNL1       -0.5170
     27 O          24.7154   73.7039   -4.0300 O.3     1  UNL1       -0.4371
     28 O          22.3917   73.2960   -2.8723 O.3     1  UNL1       -0.2865
     29 C          23.2657   72.5607   -2.0141 C.3     1  UNL1        0.2611
     30 C          22.5034   71.3814   -1.4073 C.3     1  UNL1        0.1582
     31 C          21.2978   71.9135   -0.6244 C.3     1  UNL1        0.1625
     32 C          21.7896   72.9591    0.3820 C.3     1  UNL1        0.1686
     33 C          22.6033   74.0212   -0.3604 C.3     1  UNL1        0.1760
     34 O          20.6645   70.8369    0.0695 O.3     1  UNL1       -0.3801
     35 O          20.6681   73.5735    1.0195 O.3     1  UNL1       -0.3794
     36 O          23.7395   73.4153   -0.9755 O.3     1  UNL1       -0.3263
     37 H          19.9135   71.2156    0.5469 H       1  UNL1        0.2105
     38 H          21.0221   74.2237    1.6426 H       1  UNL1        0.2105
     39 C          20.7863   70.6087   -2.9529 C.2     1  UNL1        0.2231
     40 C          20.3108   69.6951   -4.0536 C.3     1  UNL1        0.0946
     41 N          22.0412   70.4945   -2.4769 N.am    1  UNL1       -0.2994
     42 O          20.0389   71.4466   -2.4952 O.2     1  UNL1       -0.2751
     43 H          22.6394   69.8239   -2.8429 H       1  UNL1        0.1496
     44 C          23.0720   75.0881    0.6312 C.3     1  UNL1        0.1693
     45 O          23.3161   74.4831    1.9026 O.3     1  UNL1       -0.3794
     46 H          23.6083   75.1878    2.4963 H       1  UNL1        0.2105
@<TRIPOS>BOND
     1    29    30    1
     2    29    28    1
     3    29    36    1
     4    30    31    1
     5    30    41    1
     6    31    32    1
     7    31    34    1
     8    32    33    1
     9    32    35    1
    10    33    44    1
    11    33    36    1
    12    44    45    1
    13    39    40    1
    14    39    41   am
    15    39    42    2
    16    41    43    1
    17    28    25    1
    18    34    37    1
    19    35    38    1
    20    45    46    1
    21    15    16   ar
    22    15    20   ar
    23    15     6    1
    24    16    17   ar
    25    16    21    2
    26    17    18   ar
    27    17    23    1
    28    18    19   ar
    29    18    22    2
    30    19    20   ar
    31     6     7    1
    32     6    11    1
    33     7     8    1
    34     7     9    1
    35     8    13    1
    36     9    10    1
    37     9    12    1
    38    10    11    1
    39    10     5    1
    40    12    14    1
    41     5     4    1
    42     4     1    1
    43     1     2    2
    44     1     3    1
    45     1    24    1
    46    24    25    1
    47    25    26    2
    48    25    27    1
@<TRIPOS>MOLECULE
UD1
 46 48 0 0 0
SMALL
GASTEIGER

@<TRIPOS>ATOM
      1 P          15.5676   70.7781   -2.0179 P.3     1  UNL1        0.2189
      2 O          16.8029   71.5403   -1.7323 O.2     1  UNL1       -0.5170
      3 O          14.6116   71.6461   -2.9798 O.3     1  UNL1       -0.4371
      4 O          14.7986   70.4669   -0.6378 O.3     1  UNL1       -0.3112
      5 C          14.4896   69.0723   -0.6416 C.3     1  UNL1        0.1811
      6 C          11.3091   67.6561    0.2561 C.3     1  UNL1        0.2383
      7 C          12.3482   66.6116    0.7353 C.3     1  UNL1        0.1895
      8 O          11.8752   65.9109    1.8861 O.3     1  UNL1       -0.3779
      9 C          13.5657   67.5036    1.0921 C.3     1  UNL1        0.1713
     10 C          13.3190   68.8057    0.3059 C.3     1  UNL1        0.1764
     11 O          12.1088   68.6285   -0.4499 O.3     1  UNL1       -0.3308
     12 O          13.6034   67.7597    2.4977 O.3     1  UNL1       -0.3794
     13 H          12.5647   65.2789    2.1323 H       1  UNL1        0.2106
     14 H          13.6991   66.9032    2.9351 H       1  UNL1        0.2105
     15 N          10.3314   67.0414   -0.6427 N.ar    1  UNL1       -0.2551
     16 C           9.1663   66.5870   -0.1493 C.ar    1  UNL1        0.3323
     17 N           8.2469   66.0207   -0.9533 N.ar    1  UNL1       -0.2743
     18 C           8.4863   65.8916   -2.2739 C.ar    1  UNL1        0.2626
     19 C           9.7113   66.3603   -2.8056 C.ar    1  UNL1        0.0795
     20 C          10.6136   66.9290   -1.9774 C.ar    1  UNL1        0.0869
     21 O           8.9357   66.6963    1.0396 O.2     1  UNL1       -0.2464
     22 O           7.6578   65.3755   -3.0009 O.2     1  UNL1       -0.2670
     23 H           7.4099   65.7027   -0.5812 H       1  UNL1        0.1734
     24 O          15.9471   69.3936   -2.7445 O.3     1  UNL1       -0.2703
     25 P          17.5024   69.4902   -3.1456 P.3     1  UNL1        0.2208
     26 O          17.9309   68.2186   -3.7688 O.2     1  UNL1       -0.5170
     27 O          18.3820   69.7628   -1.8250 O.3     1  UNL1       -0.4371
     28 O          17.7149   70.6973   -4.1888 O.3     1  UNL1       -0.2865
     29 C          18.5959   70.2162   -5.2055 C.3     1  UNL1        0.2611
     30 C          19.6432   71.2874   -5.5146 C.3     1  UNL1        0.1582
     31 C          18.9326   72.5653   -5.9746 C.3     1  UNL1        0.1625
     32 C          17.9964   72.2145   -7.1359 C.3     1  UNL1        0.1686
     33 C          17.0711   71.0752   -6.7034 C.3     1  UNL1        0.1760
     34 O          19.9011   73.5221   -6.4081 O.3     1  UNL1       -0.3801
     35 O          17.2162   73.3600   -7.4835 O.3     1  UNL1       -0.3794
     36 O          17.8457   69.9207   -6.3817 O.3     1  UNL1       -0.3263
     37 H          19.4116   74.3081   -6.6876 H       1  UNL1        0.2105
     38 H          16.6418   73.0954   -8.2160 H       1  UNL1        0.2105
     39 C          21.7472   71.8166   -4.4066 C.2     1  UNL1        0.2231
     40 C          22.5535   72.1053   -3.1661 C.3     1  UNL1        0.0946
     41 N          20.4269   71.5684   -4.3098 N.am    1  UNL1       -0.2994
     42 O          22.2873   71.8071   -5.4921 O.2     1  UNL1       -0.2751
     43 H          19.9945   71.5757   -3.4412 H       1  UNL1        0.1496
     44 C          16.1099   70.7391   -7.8454 C.3     1  UNL1        0.1693
     45 O          16.8289   70.7071   -9.0799 O.3     1  UNL1       -0.3794
     46 H          16.1882   70.4928   -9.7714 H       1  UNL1        0.2105
@<TRIPOS>BOND
     1    29    30    1
     2    29    28    1
     3    29    36    1
     4    30    31    1
     5    30    41    1
     6    31    32    1
     7    31    34    1
     8    32    33    1
     9    32    35    1
    10    33    44    1
    11    33    36    1
    12    44    45    1
    13    39    40    1
    14    39    41   am
    15    39    42    2
    16    41    43    1
    17    28    25    1
    18    34    37    1
    19    35    38    1
    20    45    46    1
    21    15    16   ar
    22    15    20   ar
    23    15     6    1
    24    16    17   ar
    25    16    21    2
    26    17    18   ar
    27    17    23    1
    28    18    19   ar
    29    18    22    2
    30    19    20   ar
    31     6     7    1
    32     6    11    1
    33     7     8    1
    34     7     9    1
    35     8    13    1
    36     9    10    1
    37     9    12    1
    38    10    11    1
    39    10     5    1
    40    12    14    1
    41     5     4    1
    42     4     1    1
    43     1     2    2
    44     1     3    1
    45     1    24    1
    46    24    25    1
    47    25    26    2
    48    25    27    1
@<TRIPOS>MOLECULE
UD1
 46 48 0 0 0
SMALL
GASTEIGER

@<TRIPOS>ATOM
      1 P          21.5661   73.5871   -2.2664 P.3     1  UNL1        0.2189
      2 O          22.3998   72.6815   -3.0870 O.2     1  UNL1       -0.5170
      3 O          21.5910   75.0652   -2.9046 O.3     1  UNL1       -0.4371
      4 O          22.1499   73.6413   -0.7667 O.3     1  UNL1       -0.3112
      5 C          21.0333   73.5253    0.1166 C.3     1  UNL1        0.1811
      6 C          23.1311   71.8281    2.4926 C.3     1  UNL1        0.2383
      7 C          22.4100   72.9201    3.3220 C.3     1  UNL1        0.1895
      8 O          22.2195   72.4944    4.6717 O.3     1  UNL1       -0.3779
      9 C          21.0516   73.0453    2.5842 C.3     1  UNL1        0.1713
     10 C          21.3324   72.4701    1.1825 C.3     1  UNL1        0.1764
     11 O          22.7236   72.1097    1.1368 O.3     1  UNL1       -0.3308
     12 O          20.0464   72.2809    3.2536 O.3     1  UNL1       -0.3794
     13 H          21.7684   73.2157    5.1319 H       1  UNL1        0.2106
     14 H          19.9597   72.6510    4.1422 H       1  UNL1        0.2105
     15 N          24.5833   71.9457    2.6301 N.ar    1  UNL1       -0.2551
     16 C          25.3643   70.8794    2.3847 C.ar    1  UNL1        0.3323
     17 N          26.7032   70.9598    2.4993 N.ar    1  UNL1       -0.2743
     18 C          27.2848   72.1172    2.8738 C.ar    1  UNL1        0.2626
     19 C          26.4740   73.2459    3.1410 C.ar    1  UNL1        0.0795
     20 C          25.1340   73.1390    3.0130 C.ar    1  UNL1        0.0869
     21 O          24.8546   69.8286    2.0460 O.2     1  UNL1       -0.2464
     22 O          28.4949   72.1897    2.9824 O.2     1  UNL1       -0.2670
     23 H          27.2516   70.1820    2.3138 H       1  UNL1        0.1734
     24 O          20.0529   73.0411   -2.2335 O.3     1  UNL1       -0.2703
     25 P          20.0908   71.5325   -2.7920 P.3     1  UNL1        0.2208
     26 O          18.7783   70.8890   -2.5639 O.2     1  UNL1       -0.5170
     27 O          21.2355   70.7029   -2.0215 O.3     1  UNL1       -0.4371
     28 O          20.4126   71.5506   -4.3689 O.3     1  UNL1       -0.2865
     29 C          19.3883   72.3275   -4.9921 C.3     1  UNL1        0.2611
     30 C          18.7978   71.5390   -6.1624 C.3     1  UNL1        0.1582
     31 C          19.9138   71.2138   -7.1616 C.3     1  UNL1        0.1625
     32 C          20.6232   72.5168   -7.5452 C.3     1  UNL1        0.1686
     33 C          21.0787   73.2301   -6.2705 C.3     1  UNL1        0.1760
     34 O          19.3512   70.6097   -8.3278 O.3     1  UNL1       -0.3801
     35 O          21.7585   72.2206   -8.3606 O.3     1  UNL1       -0.3794
     36 O          19.9445   73.5519   -5.4664 O.3     1  UNL1       -0.3263
     37 H          20.0864   70.4220   -8.9275 H       1  UNL1        0.2105
     38 H          22.1751   73.0666   -8.5780 H       1  UNL1        0.2105
     39 C          17.0285   69.8645   -6.1582 C.2     1  UNL1        0.2231
     40 C          16.4195   68.5841   -5.6464 C.3     1  UNL1        0.0946
     41 N          18.2060   70.2949   -5.6659 N.am    1  UNL1       -0.2994
     42 O          16.4580   70.5079   -7.0131 O.2     1  UNL1       -0.2751
     43 H          18.6626   69.7803   -4.9816 H       1  UNL1        0.1496
     44 C          21.8173   74.5171   -6.6439 C.3     1  UNL1        0.1693
     45 O          21.2154   75.0922   -7.8054 O.3     1  UNL1       -0.3794
     46 H          21.7095   75.8985   -8.0064 H       1  UNL1        0.2105
@<TRIPOS>BOND
     1    29    30    1
     2    29    28    1
     3    29    36    1
     4    30    31    1
     5    30    41    1
     6    31    32    1
     7    31    34    1
     8    32    33    1
     9    32    35    1
    10    33    44    1
    11    33    36    1
    12    44    45    1
    13    39    40    1
    14    39    41   am
    15    39    42    2
    16    41    43    1
    17    28    25    1
    18    34    37    1
    19    35    38    1
    20    45    46    1
    21    15    16   ar
    22    15    20   ar
    23    15     6    1
    24    16    17   ar
    25    16    21    2
    26    17    18   ar
    27    17    23    1
    28    18    19   ar
    29    18    22    2
    30    19    20   ar
    31     6     7    1
    32     6    11    1
    33     7     8    1
    34     7     9    1
    35     8    13    1
    36     9    10    1
    37     9    12    1
    38    10    11    1
    39    10     5    1
    40    12    14    1
    41     5     4    1
    42     4     1    1
    43     1     2    2
    44     1     3    1
    45     1    24    1
    46    24    25    1
    47    25    26    2
    48    25    27    1
@<TRIPOS>MOLECULE
UD1
 46 48 0 0 0
SMALL
GASTEIGER

@<TRIPOS>ATOM
      1 P          21.1576   71.1590   -2.2834 P.3     1  UNL1        0.2189
      2 O          21.8218   70.1171   -3.0970 O.2     1  UNL1       -0.5170
      3 O          20.8442   70.5754   -0.8159 O.3     1  UNL1       -0.4371
      4 O          19.7790   71.5948   -2.9922 O.3     1  UNL1       -0.3112
      5 C          18.7514   70.7699   -2.4410 C.3     1  UNL1        0.1811
      6 C          17.0764   70.5708   -5.6162 C.3     1  UNL1        0.2383
      7 C          17.0166   69.1281   -5.0547 C.3     1  UNL1        0.1895
      8 O          15.8412   68.4531   -5.5040 O.3     1  UNL1       -0.3779
      9 C          16.9617   69.3762   -3.5248 C.3     1  UNL1        0.1713
     10 C          17.5261   70.8000   -3.3559 C.3     1  UNL1        0.1764
     11 O          17.9021   71.2708   -4.6613 O.3     1  UNL1       -0.3308
     12 O          15.6137   69.3063   -3.0547 O.3     1  UNL1       -0.3794
     13 H          15.8646   67.5650   -5.1215 H       1  UNL1        0.2106
     14 H          15.2986   68.4121   -3.2422 H       1  UNL1        0.2105
     15 N          17.6943   70.5867   -6.9426 N.ar    1  UNL1       -0.2551
     16 C          16.9242   70.4667   -8.0379 C.ar    1  UNL1        0.3323
     17 N          17.4651   70.4820   -9.2706 N.ar    1  UNL1       -0.2743
     18 C          18.7983   70.6097   -9.4261 C.ar    1  UNL1        0.2626
     19 C          19.6214   70.7309   -8.2813 C.ar    1  UNL1        0.0795
     20 C          19.0521   70.7178   -7.0569 C.ar    1  UNL1        0.0869
     21 O          15.7201   70.3509   -7.9140 O.2     1  UNL1       -0.2464
     22 O          19.2888   70.6188  -10.5399 O.2     1  UNL1       -0.2670
     23 H          16.8940   70.3991  -10.0498 H       1  UNL1        0.1734
     24 O          22.1242   72.4391   -2.1578 O.3     1  UNL1       -0.2703
     25 P          23.2720   72.2662   -3.2722 P.3     1  UNL1        0.2208
     26 O          22.6461   72.0596   -4.5968 O.2     1  UNL1       -0.5170
     27 O          24.1874   70.9929   -2.9076 O.3     1  UNL1       -0.4371
     28 O          24.1872   73.5895   -3.3117 O.3     1  UNL1       -0.2865
     29 C          23.2994   74.7047   -3.4083 C.3     1  UNL1        0.2611
     30 C          23.7518   75.6128   -4.5532 C.3     1  UNL1        0.1582
     31 C          25.1851   76.0840   -4.2826 C.3     1  UNL1        0.1625
     32 C          25.2379   76.7173   -2.8882 C.3     1  UNL1        0.1686
     33 C          24.6760   75.7245   -1.8684 C.3     1  UNL1        0.1760
     34 O          25.5654   77.0491   -5.2652 O.3     1  UNL1       -0.3801
     35 O          26.5919   77.0305   -2.5565 O.3     1  UNL1       -0.3794
     36 O          23.3150   75.4306   -2.1810 O.3     1  UNL1       -0.3263
     37 H          26.4711   77.3173   -5.0576 H       1  UNL1        0.2105
     38 H          26.5794   77.4253   -1.6730 H       1  UNL1        0.2105
     39 C          22.5659   74.8079   -6.5229 C.2     1  UNL1        0.2231
     40 C          22.5228   74.0421   -7.8206 C.3     1  UNL1        0.0946
     41 N          23.7096   74.8694   -5.8141 N.am    1  UNL1       -0.2994
     42 O          21.5705   75.3683   -6.1163 O.2     1  UNL1       -0.2751
     43 H          24.5063   74.4208   -6.1391 H       1  UNL1        0.1496
     44 C          24.7543   76.3351   -0.4676 C.3     1  UNL1        0.1693
     45 O          25.2129   75.3476    0.4579 O.3     1  UNL1       -0.3794
     46 H          25.2475   75.7721    1.3258 H       1  UNL1        0.2105
@<TRIPOS>BOND
     1    29    30    1
     2    29    28    1
     3    29    36    1
     4    30    31    1
     5    30    41    1
     6    31    32    1
     7    31    34    1
     8    32    33    1
     9    32    35    1
    10    33    44    1
    11    33    36    1
    12    44    45    1
    13    39    40    1
    14    39    41   am
    15    39    42    2
    16    41    43    1
    17    28    25    1
    18    34    37    1
    19    35    38    1
    20    45    46    1
    21    15    16   ar
    22    15    20   ar
    23    15     6    1
    24    16    17   ar
    25    16    21    2
    26    17    18   ar
    27    17    23    1
    28    18    19   ar
    29    18    22    2
    30    19    20   ar
    31     6     7    1
    32     6    11    1
    33     7     8    1
    34     7     9    1
    35     8    13    1
    36     9    10    1
    37     9    12    1
    38    10    11    1
    39    10     5    1
    40    12    14    1
    41     5     4    1
    42     4     1    1
    43     1     2    2
    44     1     3    1
    45     1    24    1
    46    24    25    1
    47    25    26    2
    48    25    27    1
@<TRIPOS>MOLECULE
UD1
 46 48 0 0 0
SMALL
GASTEIGER

@<TRIPOS>ATOM
      1 P          22.8073   71.6722   -1.4766 P.3     1  UNL1        0.2189
      2 O          23.9268   70.9835   -2.1558 O.2     1  UNL1       -0.5170
      3 O          21.4659   70.7947   -1.6287 O.3     1  UNL1       -0.4371
      4 O          22.5807   73.1179   -2.1484 O.3     1  UNL1       -0.3112
      5 C          21.4107   73.0176   -2.9617 C.3     1  UNL1        0.1811
      6 C          20.7555   72.1258   -6.3826 C.3     1  UNL1        0.2383
      7 C          20.8413   73.6727   -6.3943 C.3     1  UNL1        0.1895
      8 O          21.3398   74.1475   -7.6454 O.3     1  UNL1       -0.3779
      9 C          21.8541   73.9513   -5.2533 C.3     1  UNL1        0.1713
     10 C          21.8135   72.6715   -4.3959 C.3     1  UNL1        0.1764
     11 O          20.8359   71.7939   -4.9801 O.3     1  UNL1       -0.3308
     12 O          23.1631   74.1625   -5.7868 O.3     1  UNL1       -0.3794
     13 H          21.3682   75.1125   -7.5876 H       1  UNL1        0.2106
     14 H          23.1093   74.9392   -6.3594 H       1  UNL1        0.2105
     15 N          19.4846   71.6718   -6.9484 N.ar    1  UNL1       -0.2551
     16 C          19.4584   70.5872   -7.7423 C.ar    1  UNL1        0.3323
     17 N          18.3032   70.1447   -8.2733 N.ar    1  UNL1       -0.2743
     18 C          17.1478   70.7929   -8.0226 C.ar    1  UNL1        0.2626
     19 C          17.1620   71.9397   -7.1934 C.ar    1  UNL1        0.0795
     20 C          18.3339   72.3586   -6.6695 C.ar    1  UNL1        0.0869
     21 O          20.4922   69.9918   -7.9776 O.2     1  UNL1       -0.2464
     22 O          16.1035   70.3965   -8.5061 O.2     1  UNL1       -0.2670
     23 H          18.3020   69.3578   -8.8399 H       1  UNL1        0.1734
     24 O          23.1566   71.8544    0.0834 O.3     1  UNL1       -0.2703
     25 P          21.8216   71.4894    0.9043 P.3     1  UNL1        0.2208
     26 O          21.6477   70.0205    0.9351 O.2     1  UNL1       -0.5170
     27 O          20.5482   72.1649    0.1872 O.3     1  UNL1       -0.4371
     28 O          21.9463   72.0465    2.4092 O.3     1  UNL1       -0.2865
     29 C          22.4140   73.3932    2.3152 C.3     1  UNL1        0.2611
     30 C          23.4014   73.6654    3.4514 C.3     1  UNL1        0.1582
     31 C          22.6991   73.4290    4.7932 C.3     1  UNL1        0.1625
     32 C          21.4164   74.2666    4.8293 C.3     1  UNL1        0.1686
     33 C          20.5772   73.9467    3.5905 C.3     1  UNL1        0.1760
     34 O          23.5623   73.8227    5.8614 O.3     1  UNL1       -0.3801
     35 O          20.6721   73.9503    6.0072 O.3     1  UNL1       -0.3794
     36 O          21.3073   74.2871    2.4125 O.3     1  UNL1       -0.3263
     37 H          23.0820   73.6571    6.6843 H       1  UNL1        0.2105
     38 H          19.8744   74.4979    5.9896 H       1  UNL1        0.2105
     39 C          25.7556   73.2465    2.9861 C.2     1  UNL1        0.2231
     40 C          26.9349   72.3158    2.8623 C.3     1  UNL1        0.0946
     41 N          24.5474   72.7617    3.3315 N.am    1  UNL1       -0.2994
     42 O          25.8942   74.4323    2.7739 O.2     1  UNL1       -0.2751
     43 H          24.4361   71.8128    3.5012 H       1  UNL1        0.1496
     44 C          19.2784   74.7543    3.6334 C.3     1  UNL1        0.1693
     45 O          19.5412   76.0516    4.1719 O.3     1  UNL1       -0.3794
     46 H          18.6991   76.5264    4.1818 H       1  UNL1        0.2105
@<TRIPOS>BOND
     1    29    30    1
     2    29    28    1
     3    29    36    1
     4    30    31    1
     5    30    41    1
     6    31    32    1
     7    31    34    1
     8    32    33    1
     9    32    35    1
    10    33    44    1
    11    33    36    1
    12    44    45    1
    13    39    40    1
    14    39    41   am
    15    39    42    2
    16    41    43    1
    17    28    25    1
    18    34    37    1
    19    35    38    1
    20    45    46    1
    21    15    16   ar
    22    15    20   ar
    23    15     6    1
    24    16    17   ar
    25    16    21    2
    26    17    18   ar
    27    17    23    1
    28    18    19   ar
    29    18    22    2
    30    19    20   ar
    31     6     7    1
    32     6    11    1
    33     7     8    1
    34     7     9    1
    35     8    13    1
    36     9    10    1
    37     9    12    1
    38    10    11    1
    39    10     5    1
    40    12    14    1
    41     5     4    1
    42     4     1    1
    43     1     2    2
    44     1     3    1
    45     1    24    1
    46    24    25    1
    47    25    26    2
    48    25    27    1
@<TRIPOS>MOLECULE
UD1
 46 48 0 0 0
SMALL
GASTEIGER

@<TRIPOS>ATOM
      1 P          22.4531   71.4100   -2.5031 P.3     1  UNL1        0.2189
      2 O          21.9099   72.6779   -3.0379 O.2     1  UNL1       -0.5170
      3 O          23.7563   70.9856   -3.3482 O.3     1  UNL1       -0.4371
      4 O          21.3371   70.2555   -2.6237 O.3     1  UNL1       -0.3112
      5 C          20.5709   70.5412   -3.7948 C.3     1  UNL1        0.1811
      6 C          17.0801   71.0268   -4.5062 C.3     1  UNL1        0.2383
      7 C          17.3168   69.5135   -4.7387 C.3     1  UNL1        0.1895
      8 O          16.1404   68.7605   -4.4416 O.3     1  UNL1       -0.3779
      9 C          18.4455   69.2005   -3.7222 C.3     1  UNL1        0.1713
     10 C          19.0841   70.5736   -3.4374 C.3     1  UNL1        0.1764
     11 O          18.4054   71.5412   -4.2561 O.3     1  UNL1       -0.3308
     12 O          17.9005   68.6374   -2.5270 O.3     1  UNL1       -0.3794
     13 H          16.3532   67.8315   -4.6064 H       1  UNL1        0.2106
     14 H          17.4646   67.8128   -2.7803 H       1  UNL1        0.2105
     15 N          16.5004   71.6506   -5.6963 N.ar    1  UNL1       -0.2551
     16 C          16.7629   71.1393   -6.9116 C.ar    1  UNL1        0.3323
     17 N          16.2401   71.6902   -8.0231 N.ar    1  UNL1       -0.2743
     18 C          15.4468   72.7768   -7.9343 C.ar    1  UNL1        0.2626
     19 C          15.1671   73.3290   -6.6616 C.ar    1  UNL1        0.0795
     20 C          15.7003   72.7533   -5.5627 C.ar    1  UNL1        0.0869
     21 O          17.4765   70.1594   -7.0079 O.2     1  UNL1       -0.2464
     22 O          14.9775   73.2786   -8.9390 O.2     1  UNL1       -0.2670
     23 H          16.4362   71.3053   -8.8912 H       1  UNL1        0.1734
     24 O          22.8554   71.6079   -0.9578 O.3     1  UNL1       -0.2703
     25 P          21.4925   71.9108   -0.1578 P.3     1  UNL1        0.2208
     26 O          20.8313   70.6340    0.1909 O.2     1  UNL1       -0.5170
     27 O          20.5097   72.7880   -1.0833 O.3     1  UNL1       -0.4371
     28 O          21.8290   72.7260    1.1886 O.3     1  UNL1       -0.2865
     29 C          21.8144   71.7809    2.2600 C.3     1  UNL1        0.2611
     30 C          21.5109   72.5083    3.5710 C.3     1  UNL1        0.1582
     31 C          22.5809   73.5797    3.8091 C.3     1  UNL1        0.1625
     32 C          23.9614   72.9187    3.7346 C.3     1  UNL1        0.1686
     33 C          24.0811   72.1627    2.4097 C.3     1  UNL1        0.1760
     34 O          22.3950   74.1637    5.0998 O.3     1  UNL1       -0.3801
     35 O          24.9762   73.9219    3.8075 O.3     1  UNL1       -0.3794
     36 O          23.0862   71.1417    2.3455 O.3     1  UNL1       -0.3263
     37 H          23.0873   74.8303    5.2072 H       1  UNL1        0.2105
     38 H          25.8269   73.4634    3.7564 H       1  UNL1        0.2105
     39 C          20.0860   74.4268    3.0983 C.2     1  UNL1        0.2231
     40 C          18.7293   75.0782    3.0118 C.3     1  UNL1        0.0946
     41 N          20.1931   73.1414    3.4863 N.am    1  UNL1       -0.2994
     42 O          21.0815   75.0602    2.8193 O.2     1  UNL1       -0.2751
     43 H          19.3966   72.6344    3.7099 H       1  UNL1        0.1496
     44 C          25.4688   71.5256    2.3110 C.3     1  UNL1        0.1693
     45 O          25.5056   70.6336    1.1952 O.3     1  UNL1       -0.3794
     46 H          26.3945   70.2544    1.1693 H       1  UNL1        0.2105
@<TRIPOS>BOND
     1    29    30    1
     2    29    28    1
     3    29    36    1
     4    30    31    1
     5    30    41    1
     6    31    32    1
     7    31    34    1
     8    32    33    1
     9    32    35    1
    10    33    44    1
    11    33    36    1
    12    44    45    1
    13    39    40    1
    14    39    41   am
    15    39    42    2
    16    41    43    1
    17    28    25    1
    18    34    37    1
    19    35    38    1
    20    45    46    1
    21    15    16   ar
    22    15    20   ar
    23    15     6    1
    24    16    17   ar
    25    16    21    2
    26    17    18   ar
    27    17    23    1
    28    18    19   ar
    29    18    22    2
    30    19    20   ar
    31     6     7    1
    32     6    11    1
    33     7     8    1
    34     7     9    1
    35     8    13    1
    36     9    10    1
    37     9    12    1
    38    10    11    1
    39    10     5    1
    40    12    14    1
    41     5     4    1
    42     4     1    1
    43     1     2    2
    44     1     3    1
    45     1    24    1
    46    24    25    1
    47    25    26    2
    48    25    27    1
@<TRIPOS>MOLECULE
UD1
 46 48 0 0 0
SMALL
GASTEIGER

@<TRIPOS>ATOM
      1 P          22.7317   71.3176   -2.7993 P.3     1  UNL1        0.2189
      2 O          24.1146   70.8446   -3.0289 O.2     1  UNL1       -0.5170
      3 O          22.5324   72.7537   -3.4996 O.3     1  UNL1       -0.4371
      4 O          22.4669   71.4520   -1.2167 O.3     1  UNL1       -0.3112
      5 C          22.9415   72.7413   -0.8257 C.3     1  UNL1        0.1811
      6 C          24.0984   72.7131    2.5784 C.3     1  UNL1        0.2383
      7 C          23.7327   71.2374    2.2805 C.3     1  UNL1        0.1895
      8 O          24.5585   70.3449    3.0293 O.3     1  UNL1       -0.3779
      9 C          24.0331   71.1274    0.7630 C.3     1  UNL1        0.1713
     10 C          23.9993   72.5863    0.2680 C.3     1  UNL1        0.1764
     11 O          23.6631   73.4144    1.3943 O.3     1  UNL1       -0.3308
     12 O          25.3226   70.5493    0.5488 O.3     1  UNL1       -0.3794
     13 H          24.2810   69.4473    2.7999 H       1  UNL1        0.2106
     14 H          25.2981   69.6624    0.9320 H       1  UNL1        0.2105
     15 N          23.3814   73.1979    3.7583 N.ar    1  UNL1       -0.2551
     16 C          22.0683   72.9423    3.8917 C.ar    1  UNL1        0.3323
     17 N          21.3842   73.3725    4.9683 N.ar    1  UNL1       -0.2743
     18 C          22.0083   74.0795    5.9320 C.ar    1  UNL1        0.2626
     19 C          23.3891   74.3608    5.8013 C.ar    1  UNL1        0.0795
     20 C          24.0522   73.9127    4.7138 C.ar    1  UNL1        0.0869
     21 O          21.4913   72.3058    3.0310 O.2     1  UNL1       -0.2464
     22 O          21.3898   74.4730    6.9035 O.2     1  UNL1       -0.2670
     23 H          20.4385   73.1749    5.0505 H       1  UNL1        0.1734
     24 O          21.6923   70.2633   -3.4294 O.3     1  UNL1       -0.2703
     25 P          20.2175   70.8514   -3.1677 P.3     1  UNL1        0.2208
     26 O          20.2857   72.3256   -3.0639 O.2     1  UNL1       -0.5170
     27 O          19.6324   70.2440   -1.7963 O.3     1  UNL1       -0.4371
     28 O          19.2514   70.4437   -4.3888 O.3     1  UNL1       -0.2865
     29 C          18.7020   71.6571   -4.9056 C.3     1  UNL1        0.2611
     30 C          17.2458   71.4203   -5.3099 C.3     1  UNL1        0.1582
     31 C          17.1929   70.3097   -6.3651 C.3     1  UNL1        0.1625
     32 C          18.1366   70.6800   -7.5141 C.3     1  UNL1        0.1686
     33 C          19.5266   70.9698   -6.9437 C.3     1  UNL1        0.1760
     34 O          15.8584   70.1820   -6.8593 O.3     1  UNL1       -0.3801
     35 O          18.2147   69.5927   -8.4378 O.3     1  UNL1       -0.3794
     36 O          19.4571   72.0732   -6.0414 O.3     1  UNL1       -0.3263
     37 H          15.8711   69.4743   -7.5183 H       1  UNL1        0.2105
     38 H          18.8181   69.8673   -9.1428 H       1  UNL1        0.2105
     39 C          15.5681   71.8629   -3.6000 C.2     1  UNL1        0.2231
     40 C          14.7705   71.4482   -2.3900 C.3     1  UNL1        0.0946
     41 N          16.4704   71.0177   -4.1347 N.am    1  UNL1       -0.2994
     42 O          15.3982   72.9579   -4.0921 O.2     1  UNL1       -0.2751
     43 H          16.6068   70.1414   -3.7410 H       1  UNL1        0.1496
     44 C          20.4851   71.3091   -8.0871 C.3     1  UNL1        0.1693
     45 O          20.9153   72.6661   -7.9616 O.3     1  UNL1       -0.3794
     46 H          21.5157   72.8386   -8.6995 H       1  UNL1        0.2105
@<TRIPOS>BOND
     1    29    30    1
     2    29    28    1
     3    29    36    1
     4    30    31    1
     5    30    41    1
     6    31    32    1
     7    31    34    1
     8    32    33    1
     9    32    35    1
    10    33    44    1
    11    33    36    1
    12    44    45    1
    13    39    40    1
    14    39    41   am
    15    39    42    2
    16    41    43    1
    17    28    25    1
    18    34    37    1
    19    35    38    1
    20    45    46    1
    21    15    16   ar
    22    15    20   ar
    23    15     6    1
    24    16    17   ar
    25    16    21    2
    26    17    18   ar
    27    17    23    1
    28    18    19   ar
    29    18    22    2
    30    19    20   ar
    31     6     7    1
    32     6    11    1
    33     7     8    1
    34     7     9    1
    35     8    13    1
    36     9    10    1
    37     9    12    1
    38    10    11    1
    39    10     5    1
    40    12    14    1
    41     5     4    1
    42     4     1    1
    43     1     2    2
    44     1     3    1
    45     1    24    1
    46    24    25    1
    47    25    26    2
    48    25    27    1
