@<TRIPOS>MOLECULE
UD1
 46 48 0 0 0
SMALL
GASTEIGER

@<TRIPOS>ATOM
      1 P          22.2134   70.9217   -2.5849 P.3     1  UNL1        0.2189
      2 O          23.4884   70.6095   -3.2674 O.2     1  UNL1       -0.5170
      3 O          21.5598   69.5626   -2.0207 O.3     1  UNL1       -0.4371
      4 O          21.2001   71.6095   -3.6304 O.3     1  UNL1       -0.3112
      5 C          20.2245   72.3127   -2.8596 C.3     1  UNL1        0.1811
      6 C          17.9594   71.3057   -5.4639 C.3     1  UNL1        0.2383
      7 C          18.0859   70.0572   -4.5553 C.3     1  UNL1        0.1895
      8 O          16.8797   69.2929   -4.5660 O.3     1  UNL1       -0.3779
      9 C          18.3263   70.6923   -3.1610 C.3     1  UNL1        0.1713
     10 C          18.8408   72.1096   -3.4788 C.3     1  UNL1        0.1764
     11 O          18.9235   72.2258   -4.9095 O.3     1  UNL1       -0.3308
     12 O          17.1052   70.7507   -2.4205 O.3     1  UNL1       -0.3794
     13 H          17.0240   68.5337   -3.9843 H       1  UNL1        0.2106
     14 H          16.8042   69.8394   -2.3061 H       1  UNL1        0.2105
     15 N          18.2974   70.9764   -6.8491 N.ar    1  UNL1       -0.2551
     16 C          17.3223   70.6382   -7.7105 C.ar    1  UNL1        0.3323
     17 N          17.6037   70.3344   -8.9914 N.ar    1  UNL1       -0.2743
     18 C          18.8783   70.3558   -9.4306 C.ar    1  UNL1        0.2626
     19 C          19.9153   70.7042   -8.5328 C.ar    1  UNL1        0.0795
     20 C          19.6044   71.0097   -7.2548 C.ar    1  UNL1        0.0869
     21 O          16.1678   70.6145   -7.3294 O.2     1  UNL1       -0.2464
     22 O          19.1343   70.0765  -10.5873 O.2     1  UNL1       -0.2670
     23 H          16.8873   70.0973   -9.6003 H       1  UNL1        0.1734
     24 O          22.4917   71.9317   -1.3638 O.3     1  UNL1       -0.2703
     25 P          22.4911   71.0473   -0.0195 P.3     1  UNL1        0.2208
     26 O          23.5623   70.0299   -0.0982 O.2     1  UNL1       -0.5170
     27 O          21.0666   70.3143    0.1408 O.3     1  UNL1       -0.4371
     28 O          22.7485   72.0004    1.2516 O.3     1  UNL1       -0.2865
     29 C          21.9920   73.1929    1.0355 C.3     1  UNL1        0.2611
     30 C          22.9466   74.3824    0.9180 C.3     1  UNL1        0.1582
     31 C          23.7725   74.4912    2.2048 C.3     1  UNL1        0.1625
     32 C          22.8142   74.5397    3.3996 C.3     1  UNL1        0.1686
     33 C          21.8714   73.3365    3.3314 C.3     1  UNL1        0.1760
     34 O          24.5595   75.6831    2.1693 O.3     1  UNL1       -0.3801
     35 O          23.5634   74.4934    4.6153 O.3     1  UNL1       -0.3794
     36 O          21.1018   73.3944    2.1311 O.3     1  UNL1       -0.3263
     37 H          25.0617   75.7111    2.9953 H       1  UNL1        0.2105
     38 H          22.9229   74.5253    5.3401 H       1  UNL1        0.2105
     39 C          24.1255   75.2090   -1.0469 C.2     1  UNL1        0.2231
     40 C          25.0462   75.0016   -2.2223 C.3     1  UNL1        0.0946
     41 N          23.8414   74.1815   -0.2236 N.am    1  UNL1       -0.2994
     42 O          23.6397   76.3010   -0.8426 O.2     1  UNL1       -0.2751
     43 H          24.2299   73.3075   -0.3871 H       1  UNL1        0.1496
     44 C          20.9311   73.3579    4.5383 C.3     1  UNL1        0.1693
     45 O          21.6325   72.9026    5.6972 O.3     1  UNL1       -0.3794
     46 H          21.0058   72.9312    6.4328 H       1  UNL1        0.2105
@<TRIPOS>BOND
     1    29    30    1
     2    29    28    1
     3    29    36    1
     4    30    31    1
     5    30    41    1
     6    31    32    1
     7    31    34    1
     8    32    33    1
     9    32    35    1
    10    33    44    1
    11    33    36    1
    12    44    45    1
    13    39    40    1
    14    39    41   am
    15    39    42    2
    16    41    43    1
    17    28    25    1
    18    34    37    1
    19    35    38    1
    20    45    46    1
    21    15    16   ar
    22    15    20   ar
    23    15     6    1
    24    16    17   ar
    25    16    21    2
    26    17    18   ar
    27    17    23    1
    28    18    19   ar
    29    18    22    2
    30    19    20   ar
    31     6     7    1
    32     6    11    1
    33     7     8    1
    34     7     9    1
    35     8    13    1
    36     9    10    1
    37     9    12    1
    38    10    11    1
    39    10     5    1
    40    12    14    1
    41     5     4    1
    42     4     1    1
    43     1     2    2
    44     1     3    1
    45     1    24    1
    46    24    25    1
    47    25    26    2
    48    25    27    1
@<TRIPOS>MOLECULE
UD1
 46 48 0 0 0
SMALL
GASTEIGER

@<TRIPOS>ATOM
      1 P          21.6909   70.5228   -0.5938 P.3     1  UNL1        0.2189
      2 O          23.0623   70.5878   -1.1450 O.2     1  UNL1       -0.5170
      3 O          21.6106   69.3523    0.5089 O.3     1  UNL1       -0.4371
      4 O          20.6497   70.2115   -1.7821 O.3     1  UNL1       -0.3112
      5 C          20.6630   71.3449   -2.6514 C.3     1  UNL1        0.1811
      6 C          18.2123   71.1818   -5.2773 C.3     1  UNL1        0.2383
      7 C          18.0324   69.8564   -4.4955 C.3     1  UNL1        0.1895
      8 O          16.6759   69.4132   -4.5462 O.3     1  UNL1       -0.3779
      9 C          18.4251   70.2726   -3.0541 C.3     1  UNL1        0.1713
     10 C          19.2697   71.5466   -3.2493 C.3     1  UNL1        0.1764
     11 O          19.3740   71.7803   -4.6641 O.3     1  UNL1       -0.3308
     12 O          17.2576   70.5526   -2.2786 O.3     1  UNL1       -0.3794
     13 H          16.6318   68.5879   -4.0437 H       1  UNL1        0.2106
     14 H          16.7432   69.7351   -2.2433 H       1  UNL1        0.2105
     15 N          18.4553   70.9190   -6.6962 N.ar    1  UNL1       -0.2551
     16 C          17.4145   70.7660   -7.5333 C.ar    1  UNL1        0.3323
     17 N          17.6084   70.5274   -8.8439 N.ar    1  UNL1       -0.2743
     18 C          18.8586   70.4283   -9.3389 C.ar    1  UNL1        0.2626
     19 C          19.9634   70.5812   -8.4677 C.ar    1  UNL1        0.0795
     20 C          19.7404   70.8252   -7.1585 C.ar    1  UNL1        0.0869
     21 O          16.2810   70.8527   -7.1019 O.2     1  UNL1       -0.2464
     22 O          19.0350   70.2078  -10.5228 O.2     1  UNL1       -0.2670
     23 H          16.8460   70.4245   -9.4341 H       1  UNL1        0.1734
     24 O          21.3197   71.9315    0.0893 O.3     1  UNL1       -0.2703
     25 P          22.0106   71.9397    1.5426 P.3     1  UNL1        0.2208
     26 O          22.9619   70.8111    1.6428 O.2     1  UNL1       -0.5170
     27 O          20.8780   71.7881    2.6769 O.3     1  UNL1       -0.4371
     28 O          22.7990   73.3265    1.7555 O.3     1  UNL1       -0.2865
     29 C          22.1392   74.0199    2.8162 C.3     1  UNL1        0.2611
     30 C          21.8377   75.4524    2.3725 C.3     1  UNL1        0.1582
     31 C          23.1520   76.1504    2.0051 C.3     1  UNL1        0.1625
     32 C          24.1210   76.0236    3.1854 C.3     1  UNL1        0.1686
     33 C          24.2525   74.5474    3.5659 C.3     1  UNL1        0.1760
     34 O          22.9015   77.5305    1.7330 O.3     1  UNL1       -0.3801
     35 O          25.4003   76.5380    2.8109 O.3     1  UNL1       -0.3794
     36 O          22.9813   74.0377    3.9668 O.3     1  UNL1       -0.3263
     37 H          23.7528   77.9297    1.5067 H       1  UNL1        0.2105
     38 H          25.9782   76.4382    3.5808 H       1  UNL1        0.2105
     39 C          19.6397   75.1695    1.3611 C.2     1  UNL1        0.2231
     40 C          18.7290   75.1440    0.1602 C.3     1  UNL1        0.0946
     41 N          20.9525   75.4281    1.2063 N.am    1  UNL1       -0.2994
     42 O          19.1908   74.9565    2.4671 O.2     1  UNL1       -0.2751
     43 H          21.3121   75.5984    0.3212 H       1  UNL1        0.1496
     44 C          25.2434   74.4066    4.7232 C.3     1  UNL1        0.1693
     45 O          25.2644   75.6169    5.4827 O.3     1  UNL1       -0.3794
     46 H          25.8997   75.4863    6.1997 H       1  UNL1        0.2105
@<TRIPOS>BOND
     1    29    30    1
     2    29    28    1
     3    29    36    1
     4    30    31    1
     5    30    41    1
     6    31    32    1
     7    31    34    1
     8    32    33    1
     9    32    35    1
    10    33    44    1
    11    33    36    1
    12    44    45    1
    13    39    40    1
    14    39    41   am
    15    39    42    2
    16    41    43    1
    17    28    25    1
    18    34    37    1
    19    35    38    1
    20    45    46    1
    21    15    16   ar
    22    15    20   ar
    23    15     6    1
    24    16    17   ar
    25    16    21    2
    26    17    18   ar
    27    17    23    1
    28    18    19   ar
    29    18    22    2
    30    19    20   ar
    31     6     7    1
    32     6    11    1
    33     7     8    1
    34     7     9    1
    35     8    13    1
    36     9    10    1
    37     9    12    1
    38    10    11    1
    39    10     5    1
    40    12    14    1
    41     5     4    1
    42     4     1    1
    43     1     2    2
    44     1     3    1
    45     1    24    1
    46    24    25    1
    47    25    26    2
    48    25    27    1
@<TRIPOS>MOLECULE
UD1
 46 48 0 0 0
SMALL
GASTEIGER

@<TRIPOS>ATOM
      1 P          22.1981   71.5234   -2.8575 P.3     1  UNL1        0.2189
      2 O          21.9662   70.0713   -3.0197 O.2     1  UNL1       -0.5170
      3 O          22.2514   71.8865   -1.2898 O.3     1  UNL1       -0.4371
      4 O          20.9983   72.3392   -3.5558 O.3     1  UNL1       -0.3112
      5 C          19.9519   72.4446   -2.5892 C.3     1  UNL1        0.1811
      6 C          17.8146   71.4596   -5.3075 C.3     1  UNL1        0.2383
      7 C          17.8939   70.2052   -4.4018 C.3     1  UNL1        0.1895
      8 O          16.6880   69.4439   -4.4764 O.3     1  UNL1       -0.3779
      9 C          18.0672   70.8308   -2.9934 C.3     1  UNL1        0.1713
     10 C          18.5997   72.2488   -3.2765 C.3     1  UNL1        0.1764
     11 O          18.7525   72.3739   -4.7007 O.3     1  UNL1       -0.3308
     12 O          16.8114   70.8876   -2.3132 O.3     1  UNL1       -0.3794
     13 H          16.8020   68.6807   -3.8933 H       1  UNL1        0.2106
     14 H          16.5032   69.9763   -2.2194 H       1  UNL1        0.2105
     15 N          18.2193   71.1382   -6.6766 N.ar    1  UNL1       -0.2551
     16 C          17.2875   70.8004   -7.5849 C.ar    1  UNL1        0.3323
     17 N          17.6305   70.5037   -8.8524 N.ar    1  UNL1       -0.2743
     18 C          18.9244   70.5322   -9.2305 C.ar    1  UNL1        0.2626
     19 C          19.9162   70.8804   -8.2830 C.ar    1  UNL1        0.0795
     20 C          19.5438   71.1786   -7.0197 C.ar    1  UNL1        0.0869
     21 O          16.1164   70.7703   -7.2590 O.2     1  UNL1       -0.2464
     22 O          19.2361   70.2594  -10.3750 O.2     1  UNL1       -0.2670
     23 H          16.9448   70.2667   -9.4956 H       1  UNL1        0.1734
     24 O          23.5939   71.9246   -3.5501 O.3     1  UNL1       -0.2703
     25 P          23.5220   73.5017   -3.8613 P.3     1  UNL1        0.2208
     26 O          24.8914   74.0315   -4.0425 O.2     1  UNL1       -0.5170
     27 O          22.8122   74.2603   -2.6313 O.3     1  UNL1       -0.4371
     28 O          22.6699   73.7466   -5.2046 O.3     1  UNL1       -0.2865
     29 C          22.6691   75.1551   -5.4439 C.3     1  UNL1        0.2611
     30 C          21.2264   75.6634   -5.4628 C.3     1  UNL1        0.1582
     31 C          20.4501   74.9275   -6.5607 C.3     1  UNL1        0.1625
     32 C          21.2111   75.0759   -7.8825 C.3     1  UNL1        0.1686
     33 C          22.6543   74.6090   -7.6818 C.3     1  UNL1        0.1760
     34 O          19.1459   75.4969   -6.6887 O.3     1  UNL1       -0.3801
     35 O          20.5840   74.2766   -8.8873 O.3     1  UNL1       -0.3794
     36 O          23.2920   75.4231   -6.6983 O.3     1  UNL1       -0.3263
     37 H          18.6937   75.0050   -7.3879 H       1  UNL1        0.2105
     38 H          21.0942   74.3987   -9.7005 H       1  UNL1        0.2105
     39 C          19.7992   76.3370   -3.6071 C.2     1  UNL1        0.2231
     40 C          19.1551   76.0741   -2.2699 C.3     1  UNL1        0.0946
     41 N          20.6001   75.4082   -4.1640 N.am    1  UNL1       -0.2994
     42 O          19.5970   77.3854   -4.1818 O.2     1  UNL1       -0.2751
     43 H          20.7622   74.5692   -3.7042 H       1  UNL1        0.1496
     44 C          23.4145   74.7227   -9.0048 C.3     1  UNL1        0.1693
     45 O          23.1676   73.5599   -9.7979 O.3     1  UNL1       -0.3794
     46 H          23.6638   73.6714  -10.6201 H       1  UNL1        0.2105
@<TRIPOS>BOND
     1    29    30    1
     2    29    28    1
     3    29    36    1
     4    30    31    1
     5    30    41    1
     6    31    32    1
     7    31    34    1
     8    32    33    1
     9    32    35    1
    10    33    44    1
    11    33    36    1
    12    44    45    1
    13    39    40    1
    14    39    41   am
    15    39    42    2
    16    41    43    1
    17    28    25    1
    18    34    37    1
    19    35    38    1
    20    45    46    1
    21    15    16   ar
    22    15    20   ar
    23    15     6    1
    24    16    17   ar
    25    16    21    2
    26    17    18   ar
    27    17    23    1
    28    18    19   ar
    29    18    22    2
    30    19    20   ar
    31     6     7    1
    32     6    11    1
    33     7     8    1
    34     7     9    1
    35     8    13    1
    36     9    10    1
    37     9    12    1
    38    10    11    1
    39    10     5    1
    40    12    14    1
    41     5     4    1
    42     4     1    1
    43     1     2    2
    44     1     3    1
    45     1    24    1
    46    24    25    1
    47    25    26    2
    48    25    27    1
@<TRIPOS>MOLECULE
UD1
 46 48 0 0 0
SMALL
GASTEIGER

@<TRIPOS>ATOM
      1 P          21.6969   70.8473   -0.4989 P.3     1  UNL1        0.2189
      2 O          21.3550   69.5620    0.1490 O.2     1  UNL1       -0.5170
      3 O          22.9115   70.6215   -1.5316 O.3     1  UNL1       -0.4371
      4 O          22.1399   71.9127    0.6243 O.3     1  UNL1       -0.3112
      5 C          22.4064   71.1713    1.8158 C.3     1  UNL1        0.1811
      6 C          23.1417   74.1383    3.7087 C.3     1  UNL1        0.2383
      7 C          21.8573   74.4911    2.9175 C.3     1  UNL1        0.1895
      8 O          21.0490   75.4186    3.6424 O.3     1  UNL1       -0.3779
      9 C          21.1544   73.1131    2.8067 C.3     1  UNL1        0.1713
     10 C          22.2894   72.0949    3.0293 C.3     1  UNL1        0.1764
     11 O          23.5079   72.8395    3.1962 O.3     1  UNL1       -0.3308
     12 O          20.1502   72.9811    3.8151 O.3     1  UNL1       -0.3794
     13 H          20.2695   75.5962    3.0979 H       1  UNL1        0.2106
     14 H          19.5025   73.6809    3.6575 H       1  UNL1        0.2105
     15 N          24.1993   75.1145    3.4441 N.ar    1  UNL1       -0.2551
     16 C          25.2407   75.2140    4.2884 C.ar    1  UNL1        0.3323
     17 N          26.2298   76.1002    4.0678 N.ar    1  UNL1       -0.2743
     18 C          26.1859   76.9139    2.9936 C.ar    1  UNL1        0.2626
     19 C          25.0923   76.8239    2.0998 C.ar    1  UNL1        0.0795
     20 C          24.1166   75.9224    2.3421 C.ar    1  UNL1        0.0869
     21 O          25.2945   74.4870    5.2616 O.2     1  UNL1       -0.2464
     22 O          27.0772   77.7188    2.7957 O.2     1  UNL1       -0.2670
     23 H          26.9758   76.1551    4.6847 H       1  UNL1        0.1734
     24 O          20.4136   71.4065   -1.2922 O.3     1  UNL1       -0.2703
     25 P          20.1102   70.3634   -2.4794 P.3     1  UNL1        0.2208
     26 O          19.3158   69.2326   -1.9512 O.2     1  UNL1       -0.5170
     27 O          21.4992   69.8100   -3.0765 O.3     1  UNL1       -0.4371
     28 O          19.2827   71.1019   -3.6458 O.3     1  UNL1       -0.2865
     29 C          20.1069   71.0859   -4.8126 C.3     1  UNL1        0.2611
     30 C          20.5653   72.5111   -5.1267 C.3     1  UNL1        0.1582
     31 C          19.3336   73.3968   -5.3463 C.3     1  UNL1        0.1625
     32 C          18.4467   72.7470   -6.4136 C.3     1  UNL1        0.1686
     33 C          18.1456   71.3047   -6.0008 C.3     1  UNL1        0.1760
     34 O          19.7473   74.6917   -5.7862 O.3     1  UNL1       -0.3801
     35 O          17.2242   73.4777   -6.5288 O.3     1  UNL1       -0.3794
     36 O          19.3626   70.5647   -5.9115 O.3     1  UNL1       -0.3263
     37 H          18.9432   75.2143   -5.9113 H       1  UNL1        0.2105
     38 H          16.6969   73.0352   -7.2090 H       1  UNL1        0.2105
     39 C          22.6905   73.1207   -4.1040 C.2     1  UNL1        0.2231
     40 C          23.4981   73.6561   -2.9492 C.3     1  UNL1        0.0946
     41 N          21.3502   73.0317   -4.0054 N.am    1  UNL1       -0.2994
     42 O          23.2476   72.7692   -5.1220 O.2     1  UNL1       -0.2751
     43 H          20.9042   73.3126   -3.1907 H       1  UNL1        0.1496
     44 C          17.2333   70.6567   -7.0444 C.3     1  UNL1        0.1693
     45 O          16.3990   69.6849   -6.4106 O.3     1  UNL1       -0.3794
     46 H          15.8418   69.3014   -7.1013 H       1  UNL1        0.2105
@<TRIPOS>BOND
     1    29    30    1
     2    29    28    1
     3    29    36    1
     4    30    31    1
     5    30    41    1
     6    31    32    1
     7    31    34    1
     8    32    33    1
     9    32    35    1
    10    33    44    1
    11    33    36    1
    12    44    45    1
    13    39    40    1
    14    39    41   am
    15    39    42    2
    16    41    43    1
    17    28    25    1
    18    34    37    1
    19    35    38    1
    20    45    46    1
    21    15    16   ar
    22    15    20   ar
    23    15     6    1
    24    16    17   ar
    25    16    21    2
    26    17    18   ar
    27    17    23    1
    28    18    19   ar
    29    18    22    2
    30    19    20   ar
    31     6     7    1
    32     6    11    1
    33     7     8    1
    34     7     9    1
    35     8    13    1
    36     9    10    1
    37     9    12    1
    38    10    11    1
    39    10     5    1
    40    12    14    1
    41     5     4    1
    42     4     1    1
    43     1     2    2
    44     1     3    1
    45     1    24    1
    46    24    25    1
    47    25    26    2
    48    25    27    1
@<TRIPOS>MOLECULE
UD1
 46 48 0 0 0
SMALL
GASTEIGER

@<TRIPOS>ATOM
      1 P          22.8385   72.2233   -2.4458 P.3     1  UNL1        0.2189
      2 O          23.5171   71.4146   -3.4823 O.2     1  UNL1       -0.5170
      3 O          22.7655   71.3847   -1.0732 O.3     1  UNL1       -0.4371
      4 O          21.3466   72.5799   -2.9356 O.3     1  UNL1       -0.3112
      5 C          20.5333   71.4413   -2.6482 C.3     1  UNL1        0.1811
      6 C          18.1359   71.2305   -5.3193 C.3     1  UNL1        0.2383
      7 C          17.9455   69.9157   -4.5222 C.3     1  UNL1        0.1895
      8 O          16.5919   69.4663   -4.5933 O.3     1  UNL1       -0.3779
      9 C          18.3080   70.3542   -3.0795 C.3     1  UNL1        0.1713
     10 C          19.1515   71.6287   -3.2763 C.3     1  UNL1        0.1764
     11 O          19.2828   71.8425   -4.6921 O.3     1  UNL1       -0.3308
     12 O          17.1243   70.6405   -2.3313 O.3     1  UNL1       -0.3794
     13 H          16.5411   68.6482   -4.0799 H       1  UNL1        0.2106
     14 H          16.6124   69.8215   -2.2944 H       1  UNL1        0.2105
     15 N          18.4080   70.9483   -6.7292 N.ar    1  UNL1       -0.2551
     16 C          17.3847   70.7960   -7.5878 C.ar    1  UNL1        0.3323
     17 N          17.6054   70.5398   -8.8908 N.ar    1  UNL1       -0.2743
     18 C          18.8654   70.4221   -9.3562 C.ar    1  UNL1        0.2626
     19 C          19.9518   70.5742   -8.4621 C.ar    1  UNL1        0.0795
     20 C          19.7020   70.8361   -7.1612 C.ar    1  UNL1        0.0869
     21 O          16.2427   70.8993   -7.1832 O.2     1  UNL1       -0.2464
     22 O          19.0660   70.1857  -10.5332 O.2     1  UNL1       -0.2670
     23 H          16.8555   70.4375   -9.4969 H       1  UNL1        0.1734
     24 O          23.6624   73.5835   -2.2016 O.3     1  UNL1       -0.2703
     25 P          23.9546   74.2168   -3.6518 P.3     1  UNL1        0.2208
     26 O          23.2642   75.5200   -3.7690 O.2     1  UNL1       -0.5170
     27 O          23.4128   73.2187   -4.7930 O.3     1  UNL1       -0.4371
     28 O          25.5392   74.4305   -3.8360 O.3     1  UNL1       -0.2865
     29 C          25.7898   75.8284   -3.6798 C.3     1  UNL1        0.2611
     30 C          26.3911   76.3812   -4.9732 C.3     1  UNL1        0.1582
     31 C          27.6907   75.6298   -5.2830 C.3     1  UNL1        0.1625
     32 C          28.6045   75.7042   -4.0551 C.3     1  UNL1        0.1686
     33 C          27.8370   75.1994   -2.8314 C.3     1  UNL1        0.1760
     34 O          28.3385   76.2352   -6.4034 O.3     1  UNL1       -0.3801
     35 O          29.7579   74.8881   -4.2676 O.3     1  UNL1       -0.3794
     36 O          26.6992   76.0291   -2.6000 O.3     1  UNL1       -0.3263
     37 H          29.1488   75.7321   -6.5630 H       1  UNL1        0.2105
     38 H          30.3041   74.9632   -3.4723 H       1  UNL1        0.2105
     39 C          24.8941   77.2655   -6.6794 C.2     1  UNL1        0.2231
     40 C          23.9174   77.0733   -7.8114 C.3     1  UNL1        0.0946
     41 N          25.4426   76.1951   -6.0732 N.am    1  UNL1       -0.2994
     42 O          25.1857   78.3841   -6.3136 O.2     1  UNL1       -0.2751
     43 H          25.2092   75.2997   -6.3656 H       1  UNL1        0.1496
     44 C          28.7515   75.2391   -1.6053 C.3     1  UNL1        0.1693
     45 O          29.6221   74.1060   -1.6231 O.3     1  UNL1       -0.3794
     46 H          30.1795   74.1691   -0.8357 H       1  UNL1        0.2105
@<TRIPOS>BOND
     1    29    30    1
     2    29    28    1
     3    29    36    1
     4    30    31    1
     5    30    41    1
     6    31    32    1
     7    31    34    1
     8    32    33    1
     9    32    35    1
    10    33    44    1
    11    33    36    1
    12    44    45    1
    13    39    40    1
    14    39    41   am
    15    39    42    2
    16    41    43    1
    17    28    25    1
    18    34    37    1
    19    35    38    1
    20    45    46    1
    21    15    16   ar
    22    15    20   ar
    23    15     6    1
    24    16    17   ar
    25    16    21    2
    26    17    18   ar
    27    17    23    1
    28    18    19   ar
    29    18    22    2
    30    19    20   ar
    31     6     7    1
    32     6    11    1
    33     7     8    1
    34     7     9    1
    35     8    13    1
    36     9    10    1
    37     9    12    1
    38    10    11    1
    39    10     5    1
    40    12    14    1
    41     5     4    1
    42     4     1    1
    43     1     2    2
    44     1     3    1
    45     1    24    1
    46    24    25    1
    47    25    26    2
    48    25    27    1
@<TRIPOS>MOLECULE
UD1
 46 48 0 0 0
SMALL
GASTEIGER

@<TRIPOS>ATOM
      1 P          21.5943   70.9472   -0.9287 P.3     1  UNL1        0.2189
      2 O          21.2738   69.7204   -0.1665 O.2     1  UNL1       -0.5170
      3 O          22.7398   70.6219   -2.0124 O.3     1  UNL1       -0.4371
      4 O          22.1209   72.0843    0.0825 O.3     1  UNL1       -0.3112
      5 C          21.0708   73.0443    0.2090 C.3     1  UNL1        0.1811
      6 C          22.2986   75.1646    2.8403 C.3     1  UNL1        0.2383
      7 C          23.5686   74.4988    2.2538 C.3     1  UNL1        0.1895
      8 O          24.6994   75.3629    2.3713 O.3     1  UNL1       -0.3779
      9 C          23.1754   74.3010    0.7667 C.3     1  UNL1        0.1713
     10 C          21.6352   74.3472    0.7774 C.3     1  UNL1        0.1764
     11 O          21.2196   74.5047    2.1448 O.3     1  UNL1       -0.3308
     12 O          23.7085   75.3563   -0.0363 O.3     1  UNL1       -0.3794
     13 H          25.4531   74.8913    1.9903 H       1  UNL1        0.2106
     14 H          24.6704   75.3111    0.0458 H       1  UNL1        0.2105
     15 N          22.2057   74.9268    4.2812 N.ar    1  UNL1       -0.2551
     16 C          22.0640   73.6717    4.7416 C.ar    1  UNL1        0.3323
     17 N          21.9800   73.4230    6.0620 N.ar    1  UNL1       -0.2743
     18 C          22.0277   74.4375    6.9488 C.ar    1  UNL1        0.2626
     19 C          22.1707   75.7643    6.4776 C.ar    1  UNL1        0.0795
     20 C          22.2580   75.9848    5.1483 C.ar    1  UNL1        0.0869
     21 O          22.0194   72.7461    3.9542 O.2     1  UNL1       -0.2464
     22 O          21.9470   74.2143    8.1426 O.2     1  UNL1       -0.2670
     23 H          21.8828   72.5110    6.3766 H       1  UNL1        0.1734
     24 O          20.2732   71.4706   -1.6834 O.3     1  UNL1       -0.2703
     25 P          19.8288   70.3077   -2.7029 P.3     1  UNL1        0.2208
     26 O          18.9900   69.3200   -1.9889 O.2     1  UNL1       -0.5170
     27 O          21.1384   69.5758   -3.2872 O.3     1  UNL1       -0.4371
     28 O          18.9876   70.9485   -3.9163 O.3     1  UNL1       -0.2865
     29 C          19.7459   70.7299   -5.1072 C.3     1  UNL1        0.2611
     30 C          20.4087   72.0416   -5.5318 C.3     1  UNL1        0.1582
     31 C          19.3235   73.0982   -5.7676 C.3     1  UNL1        0.1625
     32 C          18.2983   72.5353   -6.7577 C.3     1  UNL1        0.1686
     33 C          17.7924   71.1876   -6.2389 C.3     1  UNL1        0.1760
     34 O          19.9161   74.2809   -6.3074 O.3     1  UNL1       -0.3801
     35 O          17.2024   73.4441   -6.8792 O.3     1  UNL1       -0.3794
     36 O          18.8802   70.2690   -6.1423 O.3     1  UNL1       -0.3263
     37 H          19.1997   74.9171   -6.4394 H       1  UNL1        0.2105
     38 H          16.5820   73.0514   -7.5096 H       1  UNL1        0.2105
     39 C          22.5317   72.9804   -4.7931 C.2     1  UNL1        0.2231
     40 C          23.4648   73.4483   -3.7056 C.3     1  UNL1        0.0946
     41 N          21.3153   72.4967   -4.4758 N.am    1  UNL1       -0.2994
     42 O          22.8763   73.0387   -5.9542 O.2     1  UNL1       -0.2751
     43 H          21.0395   72.4497   -3.5467 H       1  UNL1        0.1496
     44 C          16.7435   70.6320   -7.2045 C.3     1  UNL1        0.1693
     45 O          16.1572   69.4547   -6.6457 O.3     1  UNL1       -0.3794
     46 H          15.5041   69.1374   -7.2839 H       1  UNL1        0.2105
@<TRIPOS>BOND
     1    29    30    1
     2    29    28    1
     3    29    36    1
     4    30    31    1
     5    30    41    1
     6    31    32    1
     7    31    34    1
     8    32    33    1
     9    32    35    1
    10    33    44    1
    11    33    36    1
    12    44    45    1
    13    39    40    1
    14    39    41   am
    15    39    42    2
    16    41    43    1
    17    28    25    1
    18    34    37    1
    19    35    38    1
    20    45    46    1
    21    15    16   ar
    22    15    20   ar
    23    15     6    1
    24    16    17   ar
    25    16    21    2
    26    17    18   ar
    27    17    23    1
    28    18    19   ar
    29    18    22    2
    30    19    20   ar
    31     6     7    1
    32     6    11    1
    33     7     8    1
    34     7     9    1
    35     8    13    1
    36     9    10    1
    37     9    12    1
    38    10    11    1
    39    10     5    1
    40    12    14    1
    41     5     4    1
    42     4     1    1
    43     1     2    2
    44     1     3    1
    45     1    24    1
    46    24    25    1
    47    25    26    2
    48    25    27    1
@<TRIPOS>MOLECULE
UD1
 46 48 0 0 0
SMALL
GASTEIGER

@<TRIPOS>ATOM
      1 P          22.9173   71.9841   -3.1322 P.3     1  UNL1        0.2189
      2 O          23.3182   70.5607   -3.0887 O.2     1  UNL1       -0.5170
      3 O          22.8781   72.5767   -1.6356 O.3     1  UNL1       -0.4371
      4 O          21.4557   72.1094   -3.7963 O.3     1  UNL1       -0.3112
      5 C          20.5081   71.8051   -2.7717 C.3     1  UNL1        0.1811
      6 C          18.1020   71.2026   -5.3746 C.3     1  UNL1        0.2383
      7 C          18.1120   69.8944   -4.5448 C.3     1  UNL1        0.1895
      8 O          16.8316   69.2626   -4.5711 O.3     1  UNL1       -0.3779
      9 C          18.4436   70.4139   -3.1217 C.3     1  UNL1        0.1713
     10 C          19.0996   71.7864   -3.3676 C.3     1  UNL1        0.1764
     11 O          19.1681   71.9810   -4.7906 O.3     1  UNL1       -0.3308
     12 O          17.2493   70.5542   -2.3493 O.3     1  UNL1       -0.3794
     13 H          16.9051   68.4582   -4.0391 H       1  UNL1        0.2106
     14 H          16.8555   69.6742   -2.2816 H       1  UNL1        0.2105
     15 N          18.3779   70.9255   -6.7847 N.ar    1  UNL1       -0.2551
     16 C          17.3571   70.7326   -7.6380 C.ar    1  UNL1        0.3323
     17 N          17.5813   70.4799   -8.9411 N.ar    1  UNL1       -0.2743
     18 C          18.8427   70.4067   -9.4119 C.ar    1  UNL1        0.2626
     19 C          19.9268   70.6017   -8.5233 C.ar    1  UNL1        0.0795
     20 C          19.6733   70.8591   -7.2222 C.ar    1  UNL1        0.0869
     21 O          16.2139   70.7956   -7.2286 O.2     1  UNL1       -0.2464
     22 O          19.0466   70.1735  -10.5889 O.2     1  UNL1       -0.2670
     23 H          16.8330   70.3481   -9.5434 H       1  UNL1        0.1734
     24 O          23.9789   72.8141   -4.0114 O.3     1  UNL1       -0.2703
     25 P          23.3135   74.2481   -4.3119 P.3     1  UNL1        0.2208
     26 O          22.3482   74.5781   -3.2404 O.2     1  UNL1       -0.5170
     27 O          22.5472   74.1990   -5.7270 O.3     1  UNL1       -0.4371
     28 O          24.4626   75.3739   -4.3643 O.3     1  UNL1       -0.2865
     29 C          25.5013   74.9474   -3.4810 C.3     1  UNL1        0.2611
     30 C          25.6956   75.9975   -2.3857 C.3     1  UNL1        0.1582
     31 C          26.0544   77.3387   -3.0352 C.3     1  UNL1        0.1625
     32 C          27.2591   77.1293   -3.9588 C.3     1  UNL1        0.1686
     33 C          26.9455   75.9957   -4.9376 C.3     1  UNL1        0.1760
     34 O          26.3842   78.2891   -2.0206 O.3     1  UNL1       -0.3801
     35 O          27.5189   78.3318   -4.6855 O.3     1  UNL1       -0.3794
     36 O          26.7124   74.7867   -4.2163 O.3     1  UNL1       -0.3263
     37 H          26.6024   79.1158   -2.4724 H       1  UNL1        0.2105
     38 H          28.2823   78.1560   -5.2537 H       1  UNL1        0.2105
     39 C          24.4007   75.7127   -0.3421 C.2     1  UNL1        0.2231
     40 C          23.1249   75.8591    0.4474 C.3     1  UNL1        0.0946
     41 N          24.4566   76.1399   -1.6182 N.am    1  UNL1       -0.2994
     42 O          25.3771   75.2096    0.1715 O.2     1  UNL1       -0.2751
     43 H          23.6753   76.5424   -2.0295 H       1  UNL1        0.1496
     44 C          28.1302   75.8002   -5.8860 C.3     1  UNL1        0.1693
     45 O          28.4765   74.4147   -5.9370 O.3     1  UNL1       -0.3794
     46 H          29.2251   74.3355   -6.5435 H       1  UNL1        0.2105
@<TRIPOS>BOND
     1    29    30    1
     2    29    28    1
     3    29    36    1
     4    30    31    1
     5    30    41    1
     6    31    32    1
     7    31    34    1
     8    32    33    1
     9    32    35    1
    10    33    44    1
    11    33    36    1
    12    44    45    1
    13    39    40    1
    14    39    41   am
    15    39    42    2
    16    41    43    1
    17    28    25    1
    18    34    37    1
    19    35    38    1
    20    45    46    1
    21    15    16   ar
    22    15    20   ar
    23    15     6    1
    24    16    17   ar
    25    16    21    2
    26    17    18   ar
    27    17    23    1
    28    18    19   ar
    29    18    22    2
    30    19    20   ar
    31     6     7    1
    32     6    11    1
    33     7     8    1
    34     7     9    1
    35     8    13    1
    36     9    10    1
    37     9    12    1
    38    10    11    1
    39    10     5    1
    40    12    14    1
    41     5     4    1
    42     4     1    1
    43     1     2    2
    44     1     3    1
    45     1    24    1
    46    24    25    1
    47    25    26    2
    48    25    27    1
@<TRIPOS>MOLECULE
UD1
 46 48 0 0 0
SMALL
GASTEIGER

@<TRIPOS>ATOM
      1 P          21.7576   70.6115   -2.8005 P.3     1  UNL1        0.2189
      2 O          23.1455   70.3460   -3.2388 O.2     1  UNL1       -0.5170
      3 O          21.4156   72.1700   -3.0162 O.3     1  UNL1       -0.4371
      4 O          21.6080   70.2411   -1.2406 O.3     1  UNL1       -0.3112
      5 C          22.5646   71.0321   -0.5338 C.3     1  UNL1        0.1811
      6 C          21.6565   73.7927    1.5832 C.3     1  UNL1        0.2383
      7 C          23.0705   74.1520    1.0619 C.3     1  UNL1        0.1895
      8 O          23.2309   75.5668    0.9530 O.3     1  UNL1       -0.3779
      9 C          23.0807   73.4847   -0.3380 C.3     1  UNL1        0.1713
     10 C          21.9752   72.4147   -0.2508 C.3     1  UNL1        0.1764
     11 O          21.4425   72.4553    1.0840 O.3     1  UNL1       -0.3308
     12 O          22.7776   74.4449   -1.3523 O.3     1  UNL1       -0.3794
     13 H          24.1275   75.7228    0.6256 H       1  UNL1        0.2106
     14 H          23.4711   75.1171   -1.3167 H       1  UNL1        0.2105
     15 N          21.6226   73.8092    3.0461 N.ar    1  UNL1       -0.2551
     16 C          22.0225   72.7257    3.7341 C.ar    1  UNL1        0.3323
     17 N          22.0058   72.7141    5.0801 N.ar    1  UNL1       -0.2743
     18 C          21.5757   73.7939    5.7636 C.ar    1  UNL1        0.2626
     19 C          21.1462   74.9392    5.0517 C.ar    1  UNL1        0.0795
     20 C          21.1784   74.9257    3.7019 C.ar    1  UNL1        0.0869
     21 O          22.4132   71.7441    3.1319 O.2     1  UNL1       -0.2464
     22 O          21.5556   73.7829    6.9805 O.2     1  UNL1       -0.2670
     23 H          22.3023   71.9257    5.5603 H       1  UNL1        0.1734
     24 O          20.7406   69.7132   -3.6651 O.3     1  UNL1       -0.2703
     25 P          19.2531   70.1410   -3.2250 P.3     1  UNL1        0.2208
     26 O          19.3239   71.3042   -2.3135 O.2     1  UNL1       -0.5170
     27 O          18.5415   68.9103   -2.4691 O.3     1  UNL1       -0.4371
     28 O          18.3978   70.5337   -4.5306 O.3     1  UNL1       -0.2865
     29 C          18.9396   71.7586   -5.0280 C.3     1  UNL1        0.2611
     30 C          17.8299   72.8088   -5.1012 C.3     1  UNL1        0.1582
     31 C          16.7154   72.2972   -6.0209 C.3     1  UNL1        0.1625
     32 C          17.3324   71.9056   -7.3677 C.3     1  UNL1        0.1686
     33 C          18.4779   70.9210   -7.1237 C.3     1  UNL1        0.1760
     34 O          15.7451   73.3276   -6.2164 O.3     1  UNL1       -0.3801
     35 O          16.3377   71.2900   -8.1882 O.3     1  UNL1       -0.3794
     36 O          19.4861   71.5420   -6.3272 O.3     1  UNL1       -0.3263
     37 H          15.0644   72.9634   -6.7989 H       1  UNL1        0.2105
     38 H          16.7680   71.0592   -9.0238 H       1  UNL1        0.2105
     39 C          16.1796   72.3984   -3.3570 C.2     1  UNL1        0.2231
     40 C          15.6239   72.6426   -1.9771 C.3     1  UNL1        0.0946
     41 N          17.2899   73.0453   -3.7607 N.am    1  UNL1       -0.2994
     42 O          15.6267   71.6200   -4.1042 O.2     1  UNL1       -0.2751
     43 H          17.7325   73.6685   -3.1630 H       1  UNL1        0.1496
     44 C          19.0801   70.4984   -8.4653 C.3     1  UNL1        0.1693
     45 O          18.1865   70.8541   -9.5222 O.3     1  UNL1       -0.3794
     46 H          18.6025   70.5709  -10.3476 H       1  UNL1        0.2105
@<TRIPOS>BOND
     1    29    30    1
     2    29    28    1
     3    29    36    1
     4    30    31    1
     5    30    41    1
     6    31    32    1
     7    31    34    1
     8    32    33    1
     9    32    35    1
    10    33    44    1
    11    33    36    1
    12    44    45    1
    13    39    40    1
    14    39    41   am
    15    39    42    2
    16    41    43    1
    17    28    25    1
    18    34    37    1
    19    35    38    1
    20    45    46    1
    21    15    16   ar
    22    15    20   ar
    23    15     6    1
    24    16    17   ar
    25    16    21    2
    26    17    18   ar
    27    17    23    1
    28    18    19   ar
    29    18    22    2
    30    19    20   ar
    31     6     7    1
    32     6    11    1
    33     7     8    1
    34     7     9    1
    35     8    13    1
    36     9    10    1
    37     9    12    1
    38    10    11    1
    39    10     5    1
    40    12    14    1
    41     5     4    1
    42     4     1    1
    43     1     2    2
    44     1     3    1
    45     1    24    1
    46    24    25    1
    47    25    26    2
    48    25    27    1
@<TRIPOS>MOLECULE
UD1
 46 48 0 0 0
SMALL
GASTEIGER

@<TRIPOS>ATOM
      1 P          22.8455   71.8463   -3.3375 P.3     1  UNL1        0.2189
      2 O          23.4464   70.4967   -3.2583 O.2     1  UNL1       -0.5170
      3 O          23.8684   72.8468   -4.0759 O.3     1  UNL1       -0.4371
      4 O          22.5459   72.3877   -1.8509 O.3     1  UNL1       -0.3112
      5 C          21.6519   71.4543   -1.2428 C.3     1  UNL1        0.1811
      6 C          21.2621   73.4020    1.7542 C.3     1  UNL1        0.2383
      7 C          21.2220   74.4425    0.6071 C.3     1  UNL1        0.1895
      8 O          20.3967   75.5549    0.9546 O.3     1  UNL1       -0.3779
      9 C          20.5916   73.6262   -0.5511 C.3     1  UNL1        0.1713
     10 C          20.8411   72.1585   -0.1538 C.3     1  UNL1        0.1764
     11 O          21.5815   72.1670    1.0787 O.3     1  UNL1       -0.3308
     12 O          19.1909   73.8941   -0.6475 O.3     1  UNL1       -0.3794
     13 H          20.4147   76.1628    0.2025 H       1  UNL1        0.2106
     14 H          19.0994   74.8371   -0.8380 H       1  UNL1        0.2105
     15 N          22.3008   73.7416    2.7274 N.ar    1  UNL1       -0.2551
     16 C          23.4359   74.3304    2.3123 C.ar    1  UNL1        0.3323
     17 N          24.4066   74.6575    3.1858 N.ar    1  UNL1       -0.2743
     18 C          24.2579   74.3891    4.4988 C.ar    1  UNL1        0.2626
     19 C          23.0705   73.7641    4.9486 C.ar    1  UNL1        0.0795
     20 C          22.1107   73.4517    4.0516 C.ar    1  UNL1        0.0869
     21 O          23.5847   74.5789    1.1314 O.2     1  UNL1       -0.2464
     22 O          25.1369   74.6800    5.2888 O.2     1  UNL1       -0.2670
     23 H          25.2168   75.0860    2.8695 H       1  UNL1        0.1734
     24 O          21.4701   71.7735   -4.1691 O.3     1  UNL1       -0.2703
     25 P          21.5054   72.9806   -5.2326 P.3     1  UNL1        0.2208
     26 O          22.7453   72.8947   -6.0351 O.2     1  UNL1       -0.5170
     27 O          21.4699   74.3873   -4.4501 O.3     1  UNL1       -0.4371
     28 O          20.2279   72.8774   -6.2061 O.3     1  UNL1       -0.2865
     29 C          20.1837   71.5341   -6.6909 C.3     1  UNL1        0.2611
     30 C          20.1662   71.5495   -8.2204 C.3     1  UNL1        0.1582
     31 C          18.9424   72.3384   -8.6998 C.3     1  UNL1        0.1625
     32 C          17.6909   71.7505   -8.0393 C.3     1  UNL1        0.1686
     33 C          17.8940   71.7228   -6.5229 C.3     1  UNL1        0.1760
     34 O          18.8319   72.2341  -10.1205 O.3     1  UNL1       -0.3801
     35 O          16.5577   72.5611   -8.3563 O.3     1  UNL1       -0.3794
     36 O          19.0086   70.8919   -6.2009 O.3     1  UNL1       -0.3263
     37 H          18.0514   72.7437  -10.3781 H       1  UNL1        0.2105
     38 H          15.7939   72.1566   -7.9210 H       1  UNL1        0.2105
     39 C          21.3868   73.5001   -9.0202 C.2     1  UNL1        0.2231
     40 C          22.6434   74.1563   -9.5328 C.3     1  UNL1        0.0946
     41 N          21.3868   72.1875   -8.7180 N.am    1  UNL1       -0.2994
     42 O          20.3752   74.1538   -8.8805 O.2     1  UNL1       -0.2751
     43 H          22.1961   71.6641   -8.8299 H       1  UNL1        0.1496
     44 C          16.6364   71.1674   -5.8512 C.3     1  UNL1        0.1693
     45 O          16.7028   69.7402   -5.8211 O.3     1  UNL1       -0.3794
     46 H          15.8937   69.4315   -5.3915 H       1  UNL1        0.2105
@<TRIPOS>BOND
     1    29    30    1
     2    29    28    1
     3    29    36    1
     4    30    31    1
     5    30    41    1
     6    31    32    1
     7    31    34    1
     8    32    33    1
     9    32    35    1
    10    33    44    1
    11    33    36    1
    12    44    45    1
    13    39    40    1
    14    39    41   am
    15    39    42    2
    16    41    43    1
    17    28    25    1
    18    34    37    1
    19    35    38    1
    20    45    46    1
    21    15    16   ar
    22    15    20   ar
    23    15     6    1
    24    16    17   ar
    25    16    21    2
    26    17    18   ar
    27    17    23    1
    28    18    19   ar
    29    18    22    2
    30    19    20   ar
    31     6     7    1
    32     6    11    1
    33     7     8    1
    34     7     9    1
    35     8    13    1
    36     9    10    1
    37     9    12    1
    38    10    11    1
    39    10     5    1
    40    12    14    1
    41     5     4    1
    42     4     1    1
    43     1     2    2
    44     1     3    1
    45     1    24    1
    46    24    25    1
    47    25    26    2
    48    25    27    1
@<TRIPOS>MOLECULE
UD1
 46 48 0 0 0
SMALL
GASTEIGER

@<TRIPOS>ATOM
      1 P          22.6161   72.8472   -2.1975 P.3     1  UNL1        0.2189
      2 O          22.7969   74.1823   -2.8089 O.2     1  UNL1       -0.5170
      3 O          23.2615   71.7261   -3.1562 O.3     1  UNL1       -0.4371
      4 O          21.0443   72.5516   -2.0105 O.3     1  UNL1       -0.3112
      5 C          20.7409   71.4058   -2.8075 C.3     1  UNL1        0.1811
      6 C          18.2438   71.1150   -5.3780 C.3     1  UNL1        0.2383
      7 C          18.1453   69.7854   -4.5889 C.3     1  UNL1        0.1895
      8 O          16.8109   69.2771   -4.6083 O.3     1  UNL1       -0.3779
      9 C          18.5490   70.2254   -3.1576 C.3     1  UNL1        0.1713
     10 C          19.3267   71.5379   -3.3749 C.3     1  UNL1        0.1764
     11 O          19.3884   71.7711   -4.7923 O.3     1  UNL1       -0.3308
     12 O          17.3868   70.4517   -2.3571 O.3     1  UNL1       -0.3794
     13 H          16.8178   68.4526   -4.1027 H       1  UNL1        0.2106
     14 H          16.9133   69.6106   -2.3083 H       1  UNL1        0.2105
     15 N          18.4678   70.8589   -6.8012 N.ar    1  UNL1       -0.2551
     16 C          17.4161   70.6970   -7.6227 C.ar    1  UNL1        0.3323
     17 N          17.5924   70.4643   -8.9369 N.ar    1  UNL1       -0.2743
     18 C          18.8359   70.3802   -9.4512 C.ar    1  UNL1        0.2626
     19 C          19.9522   70.5427   -8.5965 C.ar    1  UNL1        0.0795
     20 C          19.7466   70.7805   -7.2833 C.ar    1  UNL1        0.0869
     21 O          16.2884   70.7701   -7.1738 O.2     1  UNL1       -0.2464
     22 O          18.9965   70.1650  -10.6383 O.2     1  UNL1       -0.2670
     23 H          16.8222   70.3547   -9.5157 H       1  UNL1        0.1734
     24 O          23.3432   72.8110   -0.7627 O.3     1  UNL1       -0.2703
     25 P          22.8396   74.1076    0.0465 P.3     1  UNL1        0.2208
     26 O          21.4256   74.3815   -0.2917 O.2     1  UNL1       -0.5170
     27 O          23.7431   75.3775   -0.3576 O.3     1  UNL1       -0.4371
     28 O          22.9707   73.8391    1.6280 O.3     1  UNL1       -0.2865
     29 C          22.8571   75.1079    2.2747 C.3     1  UNL1        0.2611
     30 C          24.0413   75.2989    3.2239 C.3     1  UNL1        0.1582
     31 C          24.0452   74.1646    4.2549 C.3     1  UNL1        0.1625
     32 C          22.6706   74.1110    4.9299 C.3     1  UNL1        0.1686
     33 C          21.5898   74.0066    3.8518 C.3     1  UNL1        0.1760
     34 O          25.0545   74.4122    5.2354 O.3     1  UNL1       -0.3801
     35 O          22.6036   72.9704    5.7879 O.3     1  UNL1       -0.3794
     36 O          21.6361   75.1577    3.0096 O.3     1  UNL1       -0.3263
     37 H          25.0219   73.6762    5.8620 H       1  UNL1        0.2105
     38 H          21.7237   72.9747    6.1908 H       1  UNL1        0.2105
     39 C          25.9889   76.4079    2.2693 C.2     1  UNL1        0.2231
     40 C          27.2745   76.3799    1.4827 C.3     1  UNL1        0.0946
     41 N          25.2905   75.2721    2.4603 N.am    1  UNL1       -0.2994
     42 O          25.5826   77.4534    2.7298 O.2     1  UNL1       -0.2751
     43 H          25.6154   74.4353    2.0917 H       1  UNL1        0.1496
     44 C          20.2145   73.9197    4.5169 C.3     1  UNL1        0.1693
     45 O          19.2034   74.2654    3.5681 O.3     1  UNL1       -0.3794
     46 H          18.3549   74.1984    4.0265 H       1  UNL1        0.2105
@<TRIPOS>BOND
     1    29    30    1
     2    29    28    1
     3    29    36    1
     4    30    31    1
     5    30    41    1
     6    31    32    1
     7    31    34    1
     8    32    33    1
     9    32    35    1
    10    33    44    1
    11    33    36    1
    12    44    45    1
    13    39    40    1
    14    39    41   am
    15    39    42    2
    16    41    43    1
    17    28    25    1
    18    34    37    1
    19    35    38    1
    20    45    46    1
    21    15    16   ar
    22    15    20   ar
    23    15     6    1
    24    16    17   ar
    25    16    21    2
    26    17    18   ar
    27    17    23    1
    28    18    19   ar
    29    18    22    2
    30    19    20   ar
    31     6     7    1
    32     6    11    1
    33     7     8    1
    34     7     9    1
    35     8    13    1
    36     9    10    1
    37     9    12    1
    38    10    11    1
    39    10     5    1
    40    12    14    1
    41     5     4    1
    42     4     1    1
    43     1     2    2
    44     1     3    1
    45     1    24    1
    46    24    25    1
    47    25    26    2
    48    25    27    1
@<TRIPOS>MOLECULE
UD1
 46 48 0 0 0
SMALL
GASTEIGER

@<TRIPOS>ATOM
      1 P          19.9301   71.7391   -3.4651 P.3     1  UNL1        0.2189
      2 O          19.3174   73.0666   -3.6909 O.2     1  UNL1       -0.5170
      3 O          19.1135   70.6236   -4.2907 O.3     1  UNL1       -0.4371
      4 O          19.8809   71.3861   -1.8949 O.3     1  UNL1       -0.3112
      5 C          20.3024   72.5572   -1.1940 C.3     1  UNL1        0.1811
      6 C          22.7435   72.3472    1.4374 C.3     1  UNL1        0.2383
      7 C          22.2485   70.8912    1.2500 C.3     1  UNL1        0.1895
      8 O          23.2833   69.9561    1.5569 O.3     1  UNL1       -0.3779
      9 C          21.9022   70.8569   -0.2613 C.3     1  UNL1        0.1713
     10 C          21.7092   72.3394   -0.6348 C.3     1  UNL1        0.1764
     11 O          21.8830   73.1111    0.5659 O.3     1  UNL1       -0.3308
     12 O          22.9767   70.2820   -1.0080 O.3     1  UNL1       -0.3794
     13 H          22.9123   69.0732    1.4214 H       1  UNL1        0.2106
     14 H          23.0865   69.3768   -0.6874 H       1  UNL1        0.2105
     15 N          22.5821   72.7759    2.8273 N.ar    1  UNL1       -0.2551
     16 C          21.4236   72.5394    3.4672 C.ar    1  UNL1        0.3323
     17 N          21.2486   72.9190    4.7469 N.ar    1  UNL1       -0.2743
     18 C          22.2366   73.5550    5.4081 C.ar    1  UNL1        0.2626
     19 C          23.4592   73.8156    4.7446 C.ar    1  UNL1        0.0795
     20 C          23.6098   73.4192    3.4626 C.ar    1  UNL1        0.0869
     21 O          20.5232   71.9667    2.8843 O.2     1  UNL1       -0.2464
     22 O          22.0778   73.9029    6.5636 O.2     1  UNL1       -0.2670
     23 H          20.4082   72.7361    5.1944 H       1  UNL1        0.1734
     24 O          21.4602   71.7627   -3.9620 O.3     1  UNL1       -0.2703
     25 P          21.5807   72.9515   -5.0398 P.3     1  UNL1        0.2208
     26 O          22.8581   72.8229   -5.7750 O.2     1  UNL1       -0.5170
     27 O          21.5397   74.3709   -4.2810 O.3     1  UNL1       -0.4371
     28 O          20.3533   72.8635   -6.0772 O.3     1  UNL1       -0.2865
     29 C          20.8883   73.1270   -7.3755 C.3     1  UNL1        0.2611
     30 C          20.1980   74.3579   -7.9658 C.3     1  UNL1        0.1582
     31 C          18.6896   74.0970   -8.0448 C.3     1  UNL1        0.1625
     32 C          18.4577   72.7897   -8.8099 C.3     1  UNL1        0.1686
     33 C          19.2770   71.6763   -8.1538 C.3     1  UNL1        0.1760
     34 O          18.0522   75.1764   -8.7304 O.3     1  UNL1       -0.3801
     35 O          17.0700   72.4516   -8.7687 O.3     1  UNL1       -0.3794
     36 O          20.6659   71.9981   -8.2178 O.3     1  UNL1       -0.3263
     37 H          17.1074   74.9716   -8.7568 H       1  UNL1        0.2105
     38 H          16.9691   71.6241   -9.2602 H       1  UNL1        0.2105
     39 C          20.6858   76.7252   -7.6617 C.2     1  UNL1        0.2231
     40 C          20.9465   77.9200   -6.7803 C.3     1  UNL1        0.0946
     41 N          20.4509   75.5190   -7.1101 N.am    1  UNL1       -0.2994
     42 O          20.6880   76.8494   -8.8678 O.2     1  UNL1       -0.2751
     43 H          20.4493   75.4192   -6.1449 H       1  UNL1        0.1496
     44 C          19.0271   70.3590   -8.8909 C.3     1  UNL1        0.1693
     45 O          20.2480   69.6213   -8.9760 O.3     1  UNL1       -0.3794
     46 H          20.0471   68.8008   -9.4463 H       1  UNL1        0.2105
@<TRIPOS>BOND
     1    29    30    1
     2    29    28    1
     3    29    36    1
     4    30    31    1
     5    30    41    1
     6    31    32    1
     7    31    34    1
     8    32    33    1
     9    32    35    1
    10    33    44    1
    11    33    36    1
    12    44    45    1
    13    39    40    1
    14    39    41   am
    15    39    42    2
    16    41    43    1
    17    28    25    1
    18    34    37    1
    19    35    38    1
    20    45    46    1
    21    15    16   ar
    22    15    20   ar
    23    15     6    1
    24    16    17   ar
    25    16    21    2
    26    17    18   ar
    27    17    23    1
    28    18    19   ar
    29    18    22    2
    30    19    20   ar
    31     6     7    1
    32     6    11    1
    33     7     8    1
    34     7     9    1
    35     8    13    1
    36     9    10    1
    37     9    12    1
    38    10    11    1
    39    10     5    1
    40    12    14    1
    41     5     4    1
    42     4     1    1
    43     1     2    2
    44     1     3    1
    45     1    24    1
    46    24    25    1
    47    25    26    2
    48    25    27    1
@<TRIPOS>MOLECULE
UD1
 46 48 0 0 0
SMALL
GASTEIGER

@<TRIPOS>ATOM
      1 P          20.0468   73.7488   -4.5261 P.3     1  UNL1        0.2189
      2 O          20.3841   73.0157   -5.7660 O.2     1  UNL1       -0.5170
      3 O          19.6991   75.2794   -4.8853 O.3     1  UNL1       -0.4371
      4 O          21.3032   73.7069   -3.5198 O.3     1  UNL1       -0.3112
      5 C          22.3022   72.8950   -4.1388 C.3     1  UNL1        0.1811
      6 C          22.6171   71.2327   -0.9662 C.3     1  UNL1        0.2383
      7 C          21.1871   70.8817   -1.4481 C.3     1  UNL1        0.1895
      8 O          20.7870   69.5975   -0.9686 O.3     1  UNL1       -0.3779
      9 C          21.3569   70.8687   -2.9896 C.3     1  UNL1        0.1713
     10 C          22.6274   71.7059   -3.2333 C.3     1  UNL1        0.1764
     11 O          23.0840   72.1763   -1.9537 O.3     1  UNL1       -0.3308
     12 O          21.5330   69.5314   -3.4622 O.3     1  UNL1       -0.3794
     13 H          19.8926   69.4403   -1.3017 H       1  UNL1        0.2106
     14 H          20.7317   69.0445   -3.2275 H       1  UNL1        0.2105
     15 N          22.5815   71.8490    0.3605 N.ar    1  UNL1       -0.2551
     16 C          22.6932   71.0784    1.4564 C.ar    1  UNL1        0.3323
     17 N          22.6677   71.6187    2.6892 N.ar    1  UNL1       -0.2743
     18 C          22.5194   72.9497    2.8448 C.ar    1  UNL1        0.2626
     19 C          22.3948   73.7721    1.6997 C.ar    1  UNL1        0.0795
     20 C          22.4290   73.2046    0.4750 C.ar    1  UNL1        0.0869
     21 O          22.8275   69.8763    1.3324 O.2     1  UNL1       -0.2464
     22 O          22.4915   73.4387    3.9590 O.2     1  UNL1       -0.2670
     23 H          22.7543   71.0483    3.4685 H       1  UNL1        0.1734
     24 O          18.7740   73.0589   -3.8240 O.3     1  UNL1       -0.2703
     25 P          17.9641   72.2900   -4.9826 P.3     1  UNL1        0.2208
     26 O          16.6058   71.9590   -4.4983 O.2     1  UNL1       -0.5170
     27 O          18.7398   70.9338   -5.3712 O.3     1  UNL1       -0.4371
     28 O          17.8553   73.2351   -6.2808 O.3     1  UNL1       -0.2865
     29 C          16.5669   73.0054   -6.8540 C.3     1  UNL1        0.2611
     30 C          16.7248   72.6946   -8.3434 C.3     1  UNL1        0.1582
     31 C          17.4201   73.8751   -9.0308 C.3     1  UNL1        0.1625
     32 C          16.6422   75.1560   -8.7109 C.3     1  UNL1        0.1686
     33 C          16.4931   75.2826   -7.1933 C.3     1  UNL1        0.1760
     34 O          17.4394   73.6629  -10.4436 O.3     1  UNL1       -0.3801
     35 O          17.3533   76.2865   -9.2187 O.3     1  UNL1       -0.3794
     36 O          15.7594   74.1686   -6.6863 O.3     1  UNL1       -0.3263
     37 H          17.8847   74.4270  -10.8348 H       1  UNL1        0.2105
     38 H          16.8302   77.0694   -8.9953 H       1  UNL1        0.2105
     39 C          18.8542   71.5851   -8.7542 C.2     1  UNL1        0.2231
     40 C          19.6864   70.3398   -8.9245 C.3     1  UNL1        0.0946
     41 N          17.5337   71.4851   -8.5084 N.am    1  UNL1       -0.2994
     42 O          19.3735   72.6775   -8.8390 O.2     1  UNL1       -0.2751
     43 H          17.1179   70.6110   -8.4407 H       1  UNL1        0.1496
     44 C          15.7455   76.5758   -6.8617 C.3     1  UNL1        0.1693
     45 O          16.6834   77.6432   -6.7099 O.3     1  UNL1       -0.3794
     46 H          16.1725   78.4371   -6.5019 H       1  UNL1        0.2105
@<TRIPOS>BOND
     1    29    30    1
     2    29    28    1
     3    29    36    1
     4    30    31    1
     5    30    41    1
     6    31    32    1
     7    31    34    1
     8    32    33    1
     9    32    35    1
    10    33    44    1
    11    33    36    1
    12    44    45    1
    13    39    40    1
    14    39    41   am
    15    39    42    2
    16    41    43    1
    17    28    25    1
    18    34    37    1
    19    35    38    1
    20    45    46    1
    21    15    16   ar
    22    15    20   ar
    23    15     6    1
    24    16    17   ar
    25    16    21    2
    26    17    18   ar
    27    17    23    1
    28    18    19   ar
    29    18    22    2
    30    19    20   ar
    31     6     7    1
    32     6    11    1
    33     7     8    1
    34     7     9    1
    35     8    13    1
    36     9    10    1
    37     9    12    1
    38    10    11    1
    39    10     5    1
    40    12    14    1
    41     5     4    1
    42     4     1    1
    43     1     2    2
    44     1     3    1
    45     1    24    1
    46    24    25    1
    47    25    26    2
    48    25    27    1
@<TRIPOS>MOLECULE
UD1
 46 48 0 0 0
SMALL
GASTEIGER

@<TRIPOS>ATOM
      1 P          20.5521   70.5422   -2.1862 P.3     1  UNL1        0.2189
      2 O          21.1314   71.8005   -2.7058 O.2     1  UNL1       -0.5170
      3 O          21.3087   69.2872   -2.8534 O.3     1  UNL1       -0.4371
      4 O          18.9858   70.4809   -2.5543 O.3     1  UNL1       -0.3112
      5 C          18.7553   71.4788   -3.5500 C.3     1  UNL1        0.1811
      6 C          16.3149   71.8019   -6.1706 C.3     1  UNL1        0.2383
      7 C          17.0268   70.4581   -6.4666 C.3     1  UNL1        0.1895
      8 O          16.1374   69.5370   -7.0989 O.3     1  UNL1       -0.3779
      9 C          17.4082   69.9715   -5.0444 C.3     1  UNL1        0.1713
     10 C          17.3849   71.2542   -4.1909 C.3     1  UNL1        0.1764
     11 O          17.0704   72.3486   -5.0688 O.3     1  UNL1       -0.3308
     12 O          16.4491   69.0264   -4.5650 O.3     1  UNL1       -0.3794
     13 H          16.6396   68.7254   -7.2558 H       1  UNL1        0.2106
     14 H          16.4692   68.2753   -5.1729 H       1  UNL1        0.2105
     15 N          16.3789   72.6905   -7.3315 N.ar    1  UNL1       -0.2551
     16 C          17.4285   72.6186   -8.1685 C.ar    1  UNL1        0.3323
     17 N          17.5117   73.4208   -9.2464 N.ar    1  UNL1       -0.2743
     18 C          16.5409   74.3215   -9.4996 C.ar    1  UNL1        0.2626
     19 C          15.4332   74.4119   -8.6234 C.ar    1  UNL1        0.0795
     20 C          15.3724   73.5915   -7.5526 C.ar    1  UNL1        0.0869
     21 O          18.3120   71.8113   -7.9535 O.2     1  UNL1       -0.2464
     22 O          16.6175   75.0506  -10.4712 O.2     1  UNL1       -0.2670
     23 H          18.2737   73.3521   -9.8421 H       1  UNL1        0.1734
     24 O          20.7300   70.4894   -0.5879 O.3     1  UNL1       -0.2703
     25 P          22.3123   70.5016   -0.2956 P.3     1  UNL1        0.2208
     26 O          23.0485   70.6385   -1.5716 O.2     1  UNL1       -0.5170
     27 O          22.7366   69.1246    0.4229 O.3     1  UNL1       -0.4371
     28 O          22.6720   71.7404    0.6670 O.3     1  UNL1       -0.2865
     29 C          21.4448   72.4146    0.9509 C.3     1  UNL1        0.2611
     30 C          21.5930   73.8983    0.6096 C.3     1  UNL1        0.1582
     31 C          22.7397   74.4908    1.4364 C.3     1  UNL1        0.1625
     32 C          22.4862   74.1843    2.9163 C.3     1  UNL1        0.1686
     33 C          22.2736   72.6783    3.0840 C.3     1  UNL1        0.1760
     34 O          22.7916   75.9049    1.2389 O.3     1  UNL1       -0.3801
     35 O          23.6137   74.5983    3.6901 O.3     1  UNL1       -0.3794
     36 O          21.1315   72.2661    2.3341 O.3     1  UNL1       -0.3263
     37 H          23.5251   76.2352    1.7757 H       1  UNL1        0.2105
     38 H          23.4127   74.3867    4.6127 H       1  UNL1        0.2105
     39 C          23.1637   74.1884   -1.2296 C.2     1  UNL1        0.2231
     40 C          23.4685   74.3405   -2.6981 C.3     1  UNL1        0.0946
     41 N          21.8896   74.0457   -0.8168 N.am    1  UNL1       -0.2994
     42 O          24.0657   74.1951   -0.4194 O.2     1  UNL1       -0.2751
     43 H          21.1675   74.0405   -1.4650 H       1  UNL1        0.1496
     44 C          22.0518   72.3575    4.5635 C.3     1  UNL1        0.1693
     45 O          21.4325   73.4738    5.2058 O.3     1  UNL1       -0.3794
     46 H          21.3111   73.2308    6.1336 H       1  UNL1        0.2105
@<TRIPOS>BOND
     1    29    30    1
     2    29    28    1
     3    29    36    1
     4    30    31    1
     5    30    41    1
     6    31    32    1
     7    31    34    1
     8    32    33    1
     9    32    35    1
    10    33    44    1
    11    33    36    1
    12    44    45    1
    13    39    40    1
    14    39    41   am
    15    39    42    2
    16    41    43    1
    17    28    25    1
    18    34    37    1
    19    35    38    1
    20    45    46    1
    21    15    16   ar
    22    15    20   ar
    23    15     6    1
    24    16    17   ar
    25    16    21    2
    26    17    18   ar
    27    17    23    1
    28    18    19   ar
    29    18    22    2
    30    19    20   ar
    31     6     7    1
    32     6    11    1
    33     7     8    1
    34     7     9    1
    35     8    13    1
    36     9    10    1
    37     9    12    1
    38    10    11    1
    39    10     5    1
    40    12    14    1
    41     5     4    1
    42     4     1    1
    43     1     2    2
    44     1     3    1
    45     1    24    1
    46    24    25    1
    47    25    26    2
    48    25    27    1
@<TRIPOS>MOLECULE
UD1
 46 48 0 0 0
SMALL
GASTEIGER

@<TRIPOS>ATOM
      1 P          22.7572   72.2392   -3.0260 P.3     1  UNL1        0.2189
      2 O          23.1320   70.9040   -2.5107 O.2     1  UNL1       -0.5170
      3 O          23.3254   72.4160   -4.5221 O.3     1  UNL1       -0.4371
      4 O          23.3869   73.3766   -2.0760 O.3     1  UNL1       -0.3112
      5 C          22.4009   73.6844   -1.0894 C.3     1  UNL1        0.1811
      6 C          22.6984   73.2013    2.4610 C.3     1  UNL1        0.2383
      7 C          21.2286   72.8308    2.1406 C.3     1  UNL1        0.1895
      8 O          20.7458   71.8315    3.0393 O.3     1  UNL1       -0.3779
      9 C          21.3408   72.2708    0.6988 C.3     1  UNL1        0.1713
     10 C          22.6637   72.8585    0.1707 C.3     1  UNL1        0.1764
     11 O          23.2023   73.7009    1.2040 O.3     1  UNL1       -0.3308
     12 O          21.3933   70.8426    0.7194 O.3     1  UNL1       -0.3794
     13 H          19.8303   71.6471    2.7876 H       1  UNL1        0.2106
     14 H          20.5651   70.5384    1.1140 H       1  UNL1        0.2105
     15 N          22.7598   74.2391    3.4908 N.ar    1  UNL1       -0.2551
     16 C          22.1951   75.4377    3.2635 C.ar    1  UNL1        0.3323
     17 N          22.2329   76.4095    4.1942 N.ar    1  UNL1       -0.2743
     18 C          22.8504   76.1970    5.3738 C.ar    1  UNL1        0.2626
     19 C          23.4543   74.9418    5.6240 C.ar    1  UNL1        0.0795
     20 C          23.3969   73.9829    4.6750 C.ar    1  UNL1        0.0869
     21 O          21.6343   75.6446    2.2045 O.2     1  UNL1       -0.2464
     22 O          22.8894   77.0765    6.2142 O.2     1  UNL1       -0.2670
     23 H          21.8161   77.2665    4.0151 H       1  UNL1        0.1734
     24 O          21.1543   72.3787   -3.0397 O.3     1  UNL1       -0.2703
     25 P          20.5616   70.9050   -3.2971 P.3     1  UNL1        0.2208
     26 O          19.8902   70.4222   -2.0703 O.2     1  UNL1       -0.5170
     27 O          21.7617   69.9026   -3.6810 O.3     1  UNL1       -0.4371
     28 O          19.4996   70.9558   -4.5054 O.3     1  UNL1       -0.2865
     29 C          19.5643   72.2713   -5.0590 C.3     1  UNL1        0.2611
     30 C          18.1455   72.8159   -5.2339 C.3     1  UNL1        0.1582
     31 C          17.3590   71.8784   -6.1570 C.3     1  UNL1        0.1625
     32 C          18.1505   71.6918   -7.4558 C.3     1  UNL1        0.1686
     33 C          19.5681   71.2289   -7.1133 C.3     1  UNL1        0.1760
     34 O          16.0833   72.4523   -6.4480 O.3     1  UNL1       -0.3801
     35 O          17.5085   70.7082   -8.2695 O.3     1  UNL1       -0.3794
     36 O          20.2218   72.2215   -6.3234 O.3     1  UNL1       -0.3263
     37 H          15.6235   71.8311   -7.0294 H       1  UNL1        0.2105
     38 H          18.0388   70.6216   -9.0744 H       1  UNL1        0.2105
     39 C          16.6931   71.8792   -3.5172 C.2     1  UNL1        0.2231
     40 C          16.0122   71.9545   -2.1744 C.3     1  UNL1        0.0946
     41 N          17.4843   72.8883   -3.9294 N.am    1  UNL1       -0.2994
     42 O          16.5281   70.9103   -4.2271 O.2     1  UNL1       -0.2751
     43 H          17.6163   73.6640   -3.3615 H       1  UNL1        0.1496
     44 C          20.3573   71.0082   -8.4054 C.3     1  UNL1        0.1693
     45 O          20.2500   69.6394   -8.8017 O.3     1  UNL1       -0.3794
     46 H          20.7601   69.5434   -9.6173 H       1  UNL1        0.2105
@<TRIPOS>BOND
     1    29    30    1
     2    29    28    1
     3    29    36    1
     4    30    31    1
     5    30    41    1
     6    31    32    1
     7    31    34    1
     8    32    33    1
     9    32    35    1
    10    33    44    1
    11    33    36    1
    12    44    45    1
    13    39    40    1
    14    39    41   am
    15    39    42    2
    16    41    43    1
    17    28    25    1
    18    34    37    1
    19    35    38    1
    20    45    46    1
    21    15    16   ar
    22    15    20   ar
    23    15     6    1
    24    16    17   ar
    25    16    21    2
    26    17    18   ar
    27    17    23    1
    28    18    19   ar
    29    18    22    2
    30    19    20   ar
    31     6     7    1
    32     6    11    1
    33     7     8    1
    34     7     9    1
    35     8    13    1
    36     9    10    1
    37     9    12    1
    38    10    11    1
    39    10     5    1
    40    12    14    1
    41     5     4    1
    42     4     1    1
    43     1     2    2
    44     1     3    1
    45     1    24    1
    46    24    25    1
    47    25    26    2
    48    25    27    1
@<TRIPOS>MOLECULE
UD1
 46 48 0 0 0
SMALL
GASTEIGER

@<TRIPOS>ATOM
      1 P          22.5122   71.7416   -3.2017 P.3     1  UNL1        0.2189
      2 O          23.4138   70.5686   -3.1924 O.2     1  UNL1       -0.5170
      3 O          23.3637   73.0705   -3.5203 O.3     1  UNL1       -0.4371
      4 O          21.8091   71.8886   -1.7606 O.3     1  UNL1       -0.3112
      5 C          22.4333   72.9944   -1.1064 C.3     1  UNL1        0.1811
      6 C          22.4881   73.5787    2.4409 C.3     1  UNL1        0.2383
      7 C          21.1594   72.8217    2.1926 C.3     1  UNL1        0.1895
      8 O          20.8054   72.0259    3.3243 O.3     1  UNL1       -0.3779
      9 C          21.5164   71.9273    0.9770 C.3     1  UNL1        0.1713
     10 C          22.7377   72.6234    0.3459 C.3     1  UNL1        0.1764
     11 O          22.9967   73.8132    1.1105 O.3     1  UNL1       -0.3308
     12 O          21.8528   70.6070    1.4089 O.3     1  UNL1       -0.3794
     13 H          19.9734   71.5834    3.1064 H       1  UNL1        0.2106
     14 H          21.0694   70.2484    1.8469 H       1  UNL1        0.2105
     15 N          22.2429   74.8459    3.1305 N.ar    1  UNL1       -0.2551
     16 C          22.3442   74.9061    4.4697 C.ar    1  UNL1        0.3323
     17 N          22.1281   76.0591    5.1300 N.ar    1  UNL1       -0.2743
     18 C          21.7952   77.1772    4.4539 C.ar    1  UNL1        0.2626
     19 C          21.6792   77.1265    3.0444 C.ar    1  UNL1        0.0795
     20 C          21.9067   75.9581    2.4068 C.ar    1  UNL1        0.0869
     21 O          22.6437   73.9062    5.0934 O.2     1  UNL1       -0.2464
     22 O          21.5949   78.2191    5.0503 O.2     1  UNL1       -0.2670
     23 H          22.2102   76.0855    6.0958 H       1  UNL1        0.1734
     24 O          21.3839   71.5423   -4.3313 O.3     1  UNL1       -0.2703
     25 P          21.4017   72.8668   -5.2449 P.3     1  UNL1        0.2208
     26 O          22.6775   72.9341   -5.9911 O.2     1  UNL1       -0.5170
     27 O          21.2599   74.1682   -4.3075 O.3     1  UNL1       -0.4371
     28 O          20.1739   72.8198   -6.2845 O.3     1  UNL1       -0.2865
     29 C          20.1609   71.5085   -6.8515 C.3     1  UNL1        0.2611
     30 C          20.1484   71.6181   -8.3772 C.3     1  UNL1        0.1582
     31 C          18.9093   72.4082   -8.8128 C.3     1  UNL1        0.1625
     32 C          17.6687   71.7536   -8.1959 C.3     1  UNL1        0.1686
     33 C          17.8671   71.6366   -6.6832 C.3     1  UNL1        0.1760
     34 O          18.8060   72.3897  -10.2378 O.3     1  UNL1       -0.3801
     35 O          16.5191   72.5574   -8.4678 O.3     1  UNL1       -0.3794
     36 O          18.9986   70.8118   -6.4077 O.3     1  UNL1       -0.3263
     37 H          18.0154   72.8971  -10.4672 H       1  UNL1        0.2105
     38 H          15.7628   72.1103   -8.0620 H       1  UNL1        0.2105
     39 C          21.3397   73.6465   -9.0099 C.2     1  UNL1        0.2231
     40 C          22.5834   74.3603   -9.4750 C.3     1  UNL1        0.0946
     41 N          21.3564   72.3120   -8.8285 N.am    1  UNL1       -0.2994
     42 O          20.3236   74.2737   -8.7996 O.2     1  UNL1       -0.2751
     43 H          22.1694   71.8098   -8.9969 H       1  UNL1        0.1496
     44 C          16.6197   71.0135   -6.0532 C.3     1  UNL1        0.1693
     45 O          15.7794   72.0474   -5.5366 O.3     1  UNL1       -0.3794
     46 H          15.0073   71.6132   -5.1493 H       1  UNL1        0.2105
@<TRIPOS>BOND
     1    29    30    1
     2    29    28    1
     3    29    36    1
     4    30    31    1
     5    30    41    1
     6    31    32    1
     7    31    34    1
     8    32    33    1
     9    32    35    1
    10    33    44    1
    11    33    36    1
    12    44    45    1
    13    39    40    1
    14    39    41   am
    15    39    42    2
    16    41    43    1
    17    28    25    1
    18    34    37    1
    19    35    38    1
    20    45    46    1
    21    15    16   ar
    22    15    20   ar
    23    15     6    1
    24    16    17   ar
    25    16    21    2
    26    17    18   ar
    27    17    23    1
    28    18    19   ar
    29    18    22    2
    30    19    20   ar
    31     6     7    1
    32     6    11    1
    33     7     8    1
    34     7     9    1
    35     8    13    1
    36     9    10    1
    37     9    12    1
    38    10    11    1
    39    10     5    1
    40    12    14    1
    41     5     4    1
    42     4     1    1
    43     1     2    2
    44     1     3    1
    45     1    24    1
    46    24    25    1
    47    25    26    2
    48    25    27    1
@<TRIPOS>MOLECULE
UD1
 46 48 0 0 0
SMALL
GASTEIGER

@<TRIPOS>ATOM
      1 P          18.5859   74.5870   -2.5656 P.3     1  UNL1        0.2189
      2 O          17.5675   75.3118   -1.7742 O.2     1  UNL1       -0.5170
      3 O          18.2710   74.7625   -4.1349 O.3     1  UNL1       -0.4371
      4 O          18.5487   73.0232   -2.1834 O.3     1  UNL1       -0.3112
      5 C          17.2122   72.5734   -2.4103 C.3     1  UNL1        0.1811
      6 C          17.9033   70.3088   -5.1161 C.3     1  UNL1        0.2383
      7 C          19.1740   70.2558   -4.2314 C.3     1  UNL1        0.1895
      8 O          19.7931   68.9709   -4.3024 O.3     1  UNL1       -0.3779
      9 C          18.5960   70.5141   -2.8156 C.3     1  UNL1        0.1713
     10 C          17.2425   71.2002   -3.0833 C.3     1  UNL1        0.1764
     11 O          17.1112   71.3505   -4.5071 O.3     1  UNL1       -0.3308
     12 O          18.4097   69.2804   -2.1186 O.3     1  UNL1       -0.3794
     13 H          20.5741   69.0044   -3.7329 H       1  UNL1        0.2106
     14 H          19.2818   68.8722   -2.0352 H       1  UNL1        0.2105
     15 N          18.2449   70.6596   -6.4952 N.ar    1  UNL1       -0.2551
     16 C          17.3099   70.5686   -7.4569 C.ar    1  UNL1        0.3323
     17 N          17.5949   70.8885   -8.7331 N.ar    1  UNL1       -0.2743
     18 C          18.8340   71.2992   -9.0702 C.ar    1  UNL1        0.2626
     19 C          19.8295   71.3938   -8.0688 C.ar    1  UNL1        0.0795
     20 C          19.5151   71.0718   -6.7957 C.ar    1  UNL1        0.0869
     21 O          16.1877   70.1998   -7.1685 O.2     1  UNL1       -0.2464
     22 O          19.0941   71.5841  -10.2246 O.2     1  UNL1       -0.2670
     23 H          16.9069   70.8215   -9.4131 H       1  UNL1        0.1734
     24 O          20.0439   75.1844   -2.2397 O.3     1  UNL1       -0.2703
     25 P          20.3251   74.9000   -0.6811 P.3     1  UNL1        0.2208
     26 O          19.1103   75.2111    0.1040 O.2     1  UNL1       -0.5170
     27 O          21.5411   75.8267   -0.1765 O.3     1  UNL1       -0.4371
     28 O          20.7128   73.3511   -0.4783 O.3     1  UNL1       -0.2865
     29 C          22.1208   73.2444   -0.6956 C.3     1  UNL1        0.2611
     30 C          22.3816   72.2770   -1.8515 C.3     1  UNL1        0.1582
     31 C          21.7823   70.9092   -1.5053 C.3     1  UNL1        0.1625
     32 C          22.3310   70.4637   -0.1457 C.3     1  UNL1        0.1686
     33 C          22.0713   71.5668    0.8824 C.3     1  UNL1        0.1760
     34 O          22.1477   69.9588   -2.5076 O.3     1  UNL1       -0.3801
     35 O          21.6748   69.2624    0.2641 O.3     1  UNL1       -0.3794
     36 O          22.7480   72.7604    0.4901 O.3     1  UNL1       -0.3263
     37 H          21.7504   69.1153   -2.2508 H       1  UNL1        0.2105
     38 H          22.0487   69.0183    1.1226 H       1  UNL1        0.2105
     39 C          22.4941   72.9669   -4.1850 C.2     1  UNL1        0.2231
     40 C          21.8505   73.4973   -5.4407 C.3     1  UNL1        0.0946
     41 N          21.7566   72.7917   -3.0716 N.am    1  UNL1       -0.2994
     42 O          23.6765   72.6983   -4.1768 O.2     1  UNL1       -0.2751
     43 H          20.8105   73.0068   -3.0779 H       1  UNL1        0.1496
     44 C          22.5866   71.1181    2.2513 C.3     1  UNL1        0.1693
     45 O          23.5073   70.0381    2.0836 O.3     1  UNL1       -0.3794
     46 H          23.8070   69.7860    2.9675 H       1  UNL1        0.2105
@<TRIPOS>BOND
     1    29    30    1
     2    29    28    1
     3    29    36    1
     4    30    31    1
     5    30    41    1
     6    31    32    1
     7    31    34    1
     8    32    33    1
     9    32    35    1
    10    33    44    1
    11    33    36    1
    12    44    45    1
    13    39    40    1
    14    39    41   am
    15    39    42    2
    16    41    43    1
    17    28    25    1
    18    34    37    1
    19    35    38    1
    20    45    46    1
    21    15    16   ar
    22    15    20   ar
    23    15     6    1
    24    16    17   ar
    25    16    21    2
    26    17    18   ar
    27    17    23    1
    28    18    19   ar
    29    18    22    2
    30    19    20   ar
    31     6     7    1
    32     6    11    1
    33     7     8    1
    34     7     9    1
    35     8    13    1
    36     9    10    1
    37     9    12    1
    38    10    11    1
    39    10     5    1
    40    12    14    1
    41     5     4    1
    42     4     1    1
    43     1     2    2
    44     1     3    1
    45     1    24    1
    46    24    25    1
    47    25    26    2
    48    25    27    1
@<TRIPOS>MOLECULE
UD1
 46 48 0 0 0
SMALL
GASTEIGER

@<TRIPOS>ATOM
      1 P          18.3339   70.6481   -2.7846 P.3     1  UNL1        0.2189
      2 O          16.9523   71.0688   -2.4637 O.2     1  UNL1       -0.5170
      3 O          18.4920   69.0697   -2.5091 O.3     1  UNL1       -0.4371
      4 O          19.3705   71.4602   -1.8579 O.3     1  UNL1       -0.3112
      5 C          20.1334   72.2987   -2.7269 C.3     1  UNL1        0.1811
      6 C          22.7298   72.2678   -0.2399 C.3     1  UNL1        0.2383
      7 C          22.5711   70.7833   -0.6539 C.3     1  UNL1        0.1895
      8 O          23.8113   70.0850   -0.5380 O.3     1  UNL1       -0.3779
      9 C          22.1404   70.9036   -2.1389 C.3     1  UNL1        0.1713
     10 C          21.5872   72.3372   -2.2532 C.3     1  UNL1        0.1764
     11 O          21.6598   72.9313   -0.9459 O.3     1  UNL1       -0.3308
     12 O          23.2652   70.7242   -3.0022 O.3     1  UNL1       -0.3794
     13 H          23.6448   69.1714   -0.8086 H       1  UNL1        0.2106
     14 H          23.6015   69.8325   -2.8410 H       1  UNL1        0.2105
     15 N          22.5687   72.4238    1.2062 N.ar    1  UNL1       -0.2551
     16 C          22.1291   71.3889    1.9431 C.ar    1  UNL1        0.3323
     17 N          21.9752   71.5027    3.2756 N.ar    1  UNL1       -0.2743
     18 C          22.2530   72.6678    3.8946 C.ar    1  UNL1        0.2626
     19 C          22.7108   73.7672    3.1301 C.ar    1  UNL1        0.0795
     20 C          22.8613   73.6240    1.7958 C.ar    1  UNL1        0.0869
     21 O          21.8745   70.3315    1.3993 O.2     1  UNL1       -0.2464
     22 O          22.1097   72.7733    5.0987 O.2     1  UNL1       -0.2670
     23 H          21.6617   70.7444    3.7923 H       1  UNL1        0.1734
     24 O          18.6429   70.9572   -4.3331 O.3     1  UNL1       -0.2703
     25 P          17.2269   70.9633   -5.0975 P.3     1  UNL1        0.2208
     26 O          16.2148   71.6378   -4.2553 O.2     1  UNL1       -0.5170
     27 O          16.7634   69.4480   -5.3824 O.3     1  UNL1       -0.4371
     28 O          17.3730   71.7498   -6.4942 O.3     1  UNL1       -0.2865
     29 C          18.6720   72.3446   -6.5010 C.3     1  UNL1        0.2611
     30 C          18.5494   73.8211   -6.8816 C.3     1  UNL1        0.1582
     31 C          17.8972   73.9299   -8.2644 C.3     1  UNL1        0.1625
     32 C          18.6913   73.0662   -9.2502 C.3     1  UNL1        0.1686
     33 C          18.8006   71.6456   -8.6923 C.3     1  UNL1        0.1760
     34 O          17.9130   75.2920   -8.6956 O.3     1  UNL1       -0.3801
     35 O          18.0173   73.0360  -10.5097 O.3     1  UNL1       -0.3794
     36 O          19.4976   71.6689   -7.4472 O.3     1  UNL1       -0.3263
     37 H          17.4941   75.3141   -9.5669 H       1  UNL1        0.2105
     38 H          18.5495   72.4824  -11.0985 H       1  UNL1        0.2105
     39 C          16.3994   74.6620   -6.1040 C.2     1  UNL1        0.2231
     40 C          15.5477   75.3766   -5.0861 C.3     1  UNL1        0.0946
     41 N          17.7215   74.5148   -5.8928 N.am    1  UNL1       -0.2994
     42 O          15.8946   74.2200   -7.1140 O.2     1  UNL1       -0.2751
     43 H          18.1258   74.8686   -5.0847 H       1  UNL1        0.1496
     44 C          19.5643   70.7666   -9.6848 C.3     1  UNL1        0.1693
     45 O          18.6361   70.0923  -10.5367 O.3     1  UNL1       -0.3794
     46 H          19.1570   69.5506  -11.1449 H       1  UNL1        0.2105
@<TRIPOS>BOND
     1    29    30    1
     2    29    28    1
     3    29    36    1
     4    30    31    1
     5    30    41    1
     6    31    32    1
     7    31    34    1
     8    32    33    1
     9    32    35    1
    10    33    44    1
    11    33    36    1
    12    44    45    1
    13    39    40    1
    14    39    41   am
    15    39    42    2
    16    41    43    1
    17    28    25    1
    18    34    37    1
    19    35    38    1
    20    45    46    1
    21    15    16   ar
    22    15    20   ar
    23    15     6    1
    24    16    17   ar
    25    16    21    2
    26    17    18   ar
    27    17    23    1
    28    18    19   ar
    29    18    22    2
    30    19    20   ar
    31     6     7    1
    32     6    11    1
    33     7     8    1
    34     7     9    1
    35     8    13    1
    36     9    10    1
    37     9    12    1
    38    10    11    1
    39    10     5    1
    40    12    14    1
    41     5     4    1
    42     4     1    1
    43     1     2    2
    44     1     3    1
    45     1    24    1
    46    24    25    1
    47    25    26    2
    48    25    27    1
@<TRIPOS>MOLECULE
UD1
 46 48 0 0 0
SMALL
GASTEIGER

@<TRIPOS>ATOM
      1 P          17.7538   73.8779   -1.9752 P.3     1  UNL1        0.2189
      2 O          18.0034   72.4220   -2.0578 O.2     1  UNL1       -0.5170
      3 O          17.6729   74.3217   -0.4295 O.3     1  UNL1       -0.4371
      4 O          16.3616   74.2254   -2.7058 O.3     1  UNL1       -0.3112
      5 C          16.2169   73.2987   -3.7831 C.3     1  UNL1        0.1811
      6 C          17.0101   73.5565   -7.2805 C.3     1  UNL1        0.2383
      7 C          15.4976   73.2223   -7.2491 C.3     1  UNL1        0.1895
      8 O          14.8236   73.7978   -8.3688 O.3     1  UNL1       -0.3779
      9 C          15.0436   73.8918   -5.9259 C.3     1  UNL1        0.1713
     10 C          16.3456   74.0394   -5.1151 C.3     1  UNL1        0.1764
     11 O          17.4057   73.4612   -5.8956 O.3     1  UNL1       -0.3308
     12 O          14.4612   75.1707   -6.1864 O.3     1  UNL1       -0.3794
     13 H          13.8911   73.5534   -8.2904 H       1  UNL1        0.2106
     14 H          13.6878   75.0167   -6.7453 H       1  UNL1        0.2105
     15 N          17.7402   72.5836   -8.0940 N.ar    1  UNL1       -0.2551
     16 C          18.5398   73.0113   -9.0864 C.ar    1  UNL1        0.3323
     17 N          19.2264   72.1391   -9.8481 N.ar    1  UNL1       -0.2743
     18 C          19.1145   70.8130   -9.6313 C.ar    1  UNL1        0.2626
     19 C          18.2716   70.3487   -8.5937 C.ar    1  UNL1        0.0795
     20 C          17.5985   71.2457   -7.8414 C.ar    1  UNL1        0.0869
     21 O          18.6512   74.2042   -9.2942 O.2     1  UNL1       -0.2464
     22 O          19.7311   70.0233  -10.3224 O.2     1  UNL1       -0.2670
     23 H          19.8023   72.4654  -10.5566 H       1  UNL1        0.1734
     24 O          18.9522   74.6700   -2.6999 O.3     1  UNL1       -0.2703
     25 P          20.0857   74.9191   -1.5853 P.3     1  UNL1        0.2208
     26 O          19.5634   75.8345   -0.5469 O.2     1  UNL1       -0.5170
     27 O          21.3831   75.5765   -2.2758 O.3     1  UNL1       -0.4371
     28 O          20.4924   73.5165   -0.9087 O.3     1  UNL1       -0.2865
     29 C          21.9065   73.3786   -1.0586 C.3     1  UNL1        0.2611
     30 C          22.2015   72.2616   -2.0613 C.3     1  UNL1        0.1582
     31 C          21.5813   70.9552   -1.5532 C.3     1  UNL1        0.1625
     32 C          22.0786   70.6989   -0.1266 C.3     1  UNL1        0.1686
     33 C          21.7900   71.9328    0.7310 C.3     1  UNL1        0.1760
     34 O          21.9755   69.8759   -2.4024 O.3     1  UNL1       -0.3801
     35 O          21.4003   69.5662    0.4197 O.3     1  UNL1       -0.3794
     36 O          22.4881   73.0603    0.2038 O.3     1  UNL1       -0.3263
     37 H          21.5638   69.0761   -2.0471 H       1  UNL1        0.2105
     38 H          21.7420   69.4412    1.3164 H       1  UNL1        0.2105
     39 C          22.4202   72.7409   -4.4397 C.2     1  UNL1        0.2231
     40 C          21.8248   73.0956   -5.7784 C.3     1  UNL1        0.0946
     41 N          21.6236   72.6057   -3.3621 N.am    1  UNL1       -0.2994
     42 O          23.6169   72.5778   -4.3325 O.2     1  UNL1       -0.2751
     43 H          20.6659   72.7364   -3.4476 H       1  UNL1        0.1496
     44 C          22.2536   71.6747    2.1661 C.3     1  UNL1        0.1693
     45 O          21.1586   71.8700    3.0633 O.3     1  UNL1       -0.3794
     46 H          21.4927   71.6982    3.9541 H       1  UNL1        0.2105
@<TRIPOS>BOND
     1    29    30    1
     2    29    28    1
     3    29    36    1
     4    30    31    1
     5    30    41    1
     6    31    32    1
     7    31    34    1
     8    32    33    1
     9    32    35    1
    10    33    44    1
    11    33    36    1
    12    44    45    1
    13    39    40    1
    14    39    41   am
    15    39    42    2
    16    41    43    1
    17    28    25    1
    18    34    37    1
    19    35    38    1
    20    45    46    1
    21    15    16   ar
    22    15    20   ar
    23    15     6    1
    24    16    17   ar
    25    16    21    2
    26    17    18   ar
    27    17    23    1
    28    18    19   ar
    29    18    22    2
    30    19    20   ar
    31     6     7    1
    32     6    11    1
    33     7     8    1
    34     7     9    1
    35     8    13    1
    36     9    10    1
    37     9    12    1
    38    10    11    1
    39    10     5    1
    40    12    14    1
    41     5     4    1
    42     4     1    1
    43     1     2    2
    44     1     3    1
    45     1    24    1
    46    24    25    1
    47    25    26    2
    48    25    27    1
@<TRIPOS>MOLECULE
UD1
 46 48 0 0 0
SMALL
GASTEIGER

@<TRIPOS>ATOM
      1 P          22.7659   73.5051   -4.5635 P.3     1  UNL1        0.2189
      2 O          23.9458   72.7732   -4.0527 O.2     1  UNL1       -0.5170
      3 O          23.2291   74.5371   -5.7093 O.3     1  UNL1       -0.4371
      4 O          22.0760   74.3186   -3.3571 O.3     1  UNL1       -0.3112
      5 C          21.2574   73.3888   -2.6459 C.3     1  UNL1        0.1811
      6 C          22.1672   72.1982    0.6224 C.3     1  UNL1        0.2383
      7 C          21.2523   71.0889    0.0460 C.3     1  UNL1        0.1895
      8 O          21.6194   69.8068    0.5568 O.3     1  UNL1       -0.3779
      9 C          21.5443   71.1832   -1.4742 C.3     1  UNL1        0.1713
     10 C          22.1190   72.6011   -1.6578 C.3     1  UNL1        0.1764
     11 O          22.0983   73.2429   -0.3713 O.3     1  UNL1       -0.3308
     12 O          22.5008   70.1946   -1.8623 O.3     1  UNL1       -0.3794
     13 H          21.0144   69.1640    0.1615 H       1  UNL1        0.2106
     14 H          22.1069   69.3336   -1.6681 H       1  UNL1        0.2105
     15 N          21.6581   72.6751    1.9088 N.ar    1  UNL1       -0.2551
     16 C          22.0547   72.0769    3.0455 C.ar    1  UNL1        0.3323
     17 N          21.6057   72.4970    4.2431 N.ar    1  UNL1       -0.2743
     18 C          20.7376   73.5259    4.3205 C.ar    1  UNL1        0.2626
     19 C          20.3072   74.1608    3.1312 C.ar    1  UNL1        0.0795
     20 C          20.7775   73.7226    1.9437 C.ar    1  UNL1        0.0869
     21 O          22.8373   71.1478    2.9921 O.2     1  UNL1       -0.2464
     22 O          20.3273   73.9034    5.4023 O.2     1  UNL1       -0.2670
     23 H          21.9060   72.0570    5.0532 H       1  UNL1        0.1734
     24 O          21.7096   72.4584   -5.1777 O.3     1  UNL1       -0.2703
     25 P          21.0981   73.1380   -6.5020 P.3     1  UNL1        0.2208
     26 O          22.0523   72.9821   -7.6218 O.2     1  UNL1       -0.5170
     27 O          20.8399   74.7041   -6.2320 O.3     1  UNL1       -0.4371
     28 O          19.7063   72.4234   -6.8797 O.3     1  UNL1       -0.2865
     29 C          18.7689   72.7773   -5.8612 C.3     1  UNL1        0.2611
     30 C          18.0043   71.5272   -5.4220 C.3     1  UNL1        0.1582
     31 C          17.2845   70.9279   -6.6354 C.3     1  UNL1        0.1625
     32 C          16.4294   72.0200   -7.2867 C.3     1  UNL1        0.1686
     33 C          17.3136   73.2319   -7.5880 C.3     1  UNL1        0.1760
     34 O          16.4485   69.8495   -6.2116 O.3     1  UNL1       -0.3801
     35 O          15.8654   71.5241   -8.5023 O.3     1  UNL1       -0.3794
     36 O          17.8567   73.7465   -6.3728 O.3     1  UNL1       -0.3263
     37 H          16.0164   69.5028   -7.0044 H       1  UNL1        0.2105
     38 H          15.3369   72.2420   -8.8788 H       1  UNL1        0.2105
     39 C          18.5759   69.7649   -3.8404 C.2     1  UNL1        0.2231
     40 C          19.5429   68.7551   -3.2768 C.3     1  UNL1        0.0946
     41 N          18.9432   70.5458   -4.8745 N.am    1  UNL1       -0.2994
     42 O          17.4671   69.8749   -3.3623 O.2     1  UNL1       -0.2751
     43 H          19.8306   70.4582   -5.2571 H       1  UNL1        0.1496
     44 C          16.4758   74.3164   -8.2685 C.3     1  UNL1        0.1693
     45 O          17.3419   75.2838   -8.8651 O.3     1  UNL1       -0.3794
     46 H          16.7755   75.9475   -9.2815 H       1  UNL1        0.2105
@<TRIPOS>BOND
     1    29    30    1
     2    29    28    1
     3    29    36    1
     4    30    31    1
     5    30    41    1
     6    31    32    1
     7    31    34    1
     8    32    33    1
     9    32    35    1
    10    33    44    1
    11    33    36    1
    12    44    45    1
    13    39    40    1
    14    39    41   am
    15    39    42    2
    16    41    43    1
    17    28    25    1
    18    34    37    1
    19    35    38    1
    20    45    46    1
    21    15    16   ar
    22    15    20   ar
    23    15     6    1
    24    16    17   ar
    25    16    21    2
    26    17    18   ar
    27    17    23    1
    28    18    19   ar
    29    18    22    2
    30    19    20   ar
    31     6     7    1
    32     6    11    1
    33     7     8    1
    34     7     9    1
    35     8    13    1
    36     9    10    1
    37     9    12    1
    38    10    11    1
    39    10     5    1
    40    12    14    1
    41     5     4    1
    42     4     1    1
    43     1     2    2
    44     1     3    1
    45     1    24    1
    46    24    25    1
    47    25    26    2
    48    25    27    1
@<TRIPOS>MOLECULE
UD1
 46 48 0 0 0
SMALL
GASTEIGER

@<TRIPOS>ATOM
      1 P          22.6829   72.1632   -3.4422 P.3     1  UNL1        0.2189
      2 O          23.2157   70.8151   -3.1462 O.2     1  UNL1       -0.5170
      3 O          22.8940   73.1168   -2.1621 O.3     1  UNL1       -0.4371
      4 O          21.1115   72.0567   -3.7775 O.3     1  UNL1       -0.3112
      5 C          20.7413   70.6891   -3.5960 C.3     1  UNL1        0.1811
      6 C          17.2831   71.0536   -4.5100 C.3     1  UNL1        0.2383
      7 C          17.6328   69.5926   -4.8887 C.3     1  UNL1        0.1895
      8 O          16.4901   68.7451   -4.7652 O.3     1  UNL1       -0.3779
      9 C          18.7074   69.2303   -3.8308 C.3     1  UNL1        0.1713
     10 C          19.2347   70.5960   -3.3498 C.3     1  UNL1        0.1764
     11 O          18.5521   71.6106   -4.1060 O.3     1  UNL1       -0.3308
     12 O          18.1197   68.5044   -2.7489 O.3     1  UNL1       -0.3794
     13 H          16.7736   67.8546   -5.0145 H       1  UNL1        0.2106
     14 H          17.7565   67.6907   -3.1232 H       1  UNL1        0.2105
     15 N          16.7467   71.7753   -5.6645 N.ar    1  UNL1       -0.2551
     16 C          16.9801   71.3143   -6.9056 C.ar    1  UNL1        0.3323
     17 N          16.4957   71.9554   -7.9857 N.ar    1  UNL1       -0.2743
     18 C          15.7716   73.0832   -7.8383 C.ar    1  UNL1        0.2626
     19 C          15.5235   73.5830   -6.5377 C.ar    1  UNL1        0.0795
     20 C          16.0167   72.9171   -5.4716 C.ar    1  UNL1        0.0869
     21 O          17.6313   70.2983   -7.0548 O.2     1  UNL1       -0.2464
     22 O          15.3373   73.6664   -8.8144 O.2     1  UNL1       -0.2670
     23 H          16.6697   71.6061   -8.8733 H       1  UNL1        0.1734
     24 O          23.4607   72.7818   -4.7076 O.3     1  UNL1       -0.2703
     25 P          22.4625   73.8404   -5.3947 P.3     1  UNL1        0.2208
     26 O          22.2196   74.9648   -4.4644 O.2     1  UNL1       -0.5170
     27 O          21.0655   73.1173   -5.7378 O.3     1  UNL1       -0.4371
     28 O          23.1229   74.3999   -6.7517 O.3     1  UNL1       -0.2865
     29 C          22.0531   74.8902   -7.5618 C.3     1  UNL1        0.2611
     30 C          22.0328   74.1271   -8.8875 C.3     1  UNL1        0.1582
     31 C          23.3788   74.3171   -9.5958 C.3     1  UNL1        0.1625
     32 C          23.6641   75.8182   -9.7118 C.3     1  UNL1        0.1686
     33 C          23.5643   76.4532   -8.3232 C.3     1  UNL1        0.1760
     34 O          23.3203   73.7353  -10.8994 O.3     1  UNL1       -0.3801
     35 O          24.9786   76.0158  -10.2358 O.3     1  UNL1       -0.3794
     36 O          22.2444   76.2816   -7.8083 O.3     1  UNL1       -0.3263
     37 H          24.1854   73.8772  -11.3078 H       1  UNL1        0.2105
     38 H          25.1168   76.9720  -10.2914 H       1  UNL1        0.2105
     39 C          20.6368   72.1321   -8.9615 C.2     1  UNL1        0.2231
     40 C          20.4086   70.6661   -8.6953 C.3     1  UNL1        0.0946
     41 N          21.8109   72.7028   -8.6296 N.am    1  UNL1       -0.2994
     42 O          19.7630   72.7985   -9.4739 O.2     1  UNL1       -0.2751
     43 H          22.5103   72.1699   -8.2193 H       1  UNL1        0.1496
     44 C          23.8795   77.9471   -8.4230 C.3     1  UNL1        0.1693
     45 O          22.8468   78.6040   -9.1607 O.3     1  UNL1       -0.3794
     46 H          23.0836   79.5405   -9.2004 H       1  UNL1        0.2105
@<TRIPOS>BOND
     1    29    30    1
     2    29    28    1
     3    29    36    1
     4    30    31    1
     5    30    41    1
     6    31    32    1
     7    31    34    1
     8    32    33    1
     9    32    35    1
    10    33    44    1
    11    33    36    1
    12    44    45    1
    13    39    40    1
    14    39    41   am
    15    39    42    2
    16    41    43    1
    17    28    25    1
    18    34    37    1
    19    35    38    1
    20    45    46    1
    21    15    16   ar
    22    15    20   ar
    23    15     6    1
    24    16    17   ar
    25    16    21    2
    26    17    18   ar
    27    17    23    1
    28    18    19   ar
    29    18    22    2
    30    19    20   ar
    31     6     7    1
    32     6    11    1
    33     7     8    1
    34     7     9    1
    35     8    13    1
    36     9    10    1
    37     9    12    1
    38    10    11    1
    39    10     5    1
    40    12    14    1
    41     5     4    1
    42     4     1    1
    43     1     2    2
    44     1     3    1
    45     1    24    1
    46    24    25    1
    47    25    26    2
    48    25    27    1
