@<TRIPOS>MOLECULE
*****
 43 45 0 0 0
SMALL
GASTEIGER

@<TRIPOS>ATOM
      1 P          21.4552   71.5185   -2.4755 P.3     1  UNL1        0.2189
      2 O          20.8660   72.8003   -3.2684 O.co2   1  UNL1       -0.4371
      3 O          22.6567   70.8796   -3.1080 O.2     1  UNL1       -0.5170
      4 O          20.1686   70.5569   -2.2811 O.3     1  UNL1       -0.3112
      5 C          19.5319   70.0380   -3.4343 C.3     1  UNL1        0.1811
      6 O          17.8776   71.2813   -4.6569 O.3     1  UNL1       -0.3308
      7 O          15.8375   69.8391   -2.9987 O.3     1  UNL1       -0.3794
      8 O          15.7642   68.4709   -5.3564 O.3     1  UNL1       -0.3779
      9 C          17.0801   69.3641   -3.5172 C.3     1  UNL1        0.1713
     10 C          16.9679   69.1219   -5.0075 C.3     1  UNL1        0.1895
     11 C          18.0831   70.5079   -3.4549 C.3     1  UNL1        0.1764
     12 C          17.0520   70.5331   -5.5636 C.3     1  UNL1        0.2383
     13 H          15.1805   69.1256   -3.0283 H       1  UNL1        0.2105
     14 H          15.7592   67.5767   -4.9793 H       1  UNL1        0.2106
     15 O          15.5976   70.3144   -7.9746 O.2     1  UNL1       -0.2464
     16 O          19.4168   70.6966  -10.5263 O.2     1  UNL1       -0.2670
     17 N          17.6412   70.5723   -6.8721 N.ar    1  UNL1       -0.2551
     18 N          17.5013   70.5039   -9.2432 N.ar    1  UNL1       -0.2743
     19 C          16.8213   70.4534   -8.0192 C.ar    1  UNL1        0.3323
     20 C          19.0151   70.7286   -7.0097 C.ar    1  UNL1        0.0869
     21 C          19.6488   70.7751   -8.1832 C.ar    1  UNL1        0.0795
     22 C          18.8654   70.6573   -9.4305 C.ar    1  UNL1        0.2626
     23 H          16.9518   70.4212  -10.0559 H       1  UNL1        0.1734
     24 O          21.7053   72.0963   -0.9867 O.3     1  UNL1       -0.2703
     25 P          22.2762   71.3826    0.3468 P.3     1  UNL1        0.2208
     26 O          23.7611   70.9114   -0.0927 O.co2   1  UNL1       -0.4371
     27 O          21.4073   70.2774    0.8738 O.2     1  UNL1       -0.5170
     28 O          22.5234   72.5925    1.3848 O.3     1  UNL1       -0.2858
     29 O          24.0962   72.9007    3.1285 O.3     1  UNL1       -0.3226
     30 O          20.7344   74.7185    4.6976 O.3     1  UNL1       -0.3794
     31 O          20.5139   72.1829    3.2636 O.3     1  UNL1       -0.3775
     32 O          22.9193   76.3342    3.6649 O.3     1  UNL1       -0.3792
     33 C          21.6282   74.3000    3.6660 C.3     1  UNL1        0.1718
     34 C          21.7408   72.7753    3.6738 C.3     1  UNL1        0.1968
     35 C          22.9935   74.9360    3.9366 C.3     1  UNL1        0.1723
     36 C          22.8576   72.3045    2.7412 C.3     1  UNL1        0.2706
     37 C          24.0777   74.3245    3.0538 C.3     1  UNL1        0.1830
     38 H          19.8599   74.3265    4.5466 H       1  UNL1        0.2105
     39 H          19.8007   72.4775    3.8508 H       1  UNL1        0.2106
     40 H          22.2327   76.7355    4.2202 H       1  UNL1        0.2106
     41 O          25.6067   74.3172    4.8324 O.co2   1  UNL1       -0.5466
     42 O          26.2861   75.2807    2.8807 O.co2   1  UNL1       -0.5466
     43 C          25.4372   74.7038    3.5438 C.2     1  UNL1        0.0799
@<TRIPOS>UNITY_ATOM_ATTR
2 1
charge -1
26 1
charge -1
41 1
charge -1
@<TRIPOS>BOND
     1     1     4    1
     2     1    24    1
     3     1     2    1
     4     1     3    2
     5    25    28    1
     6    25    24    1
     7    25    26    1
     8    25    27    2
     9     6    11    1
    10     6    12    1
    11    29    36    1
    12    29    37    1
    13     7     9    1
    14     7    13    1
    15     8    10    1
    16     8    14    1
    17     4     5    1
    18    28    36    1
    19    30    33    1
    20    30    38    1
    21    31    34    1
    22    31    39    1
    23    32    35    1
    24    32    40    1
    25    41    43   ar
    26    15    19    2
    27    42    43   ar
    28    16    22    2
    29    17    12    1
    30    17    19   ar
    31    17    20   ar
    32    18    19   ar
    33    18    22   ar
    34    18    23    1
    35     9    10    1
    36     9    11    1
    37    10    12    1
    38    11     5    1
    39    33    34    1
    40    33    35    1
    41    34    36    1
    42    35    37    1
    43    37    43    1
    44    20    21   ar
    45    21    22   ar
@<TRIPOS>MOLECULE
*****
 43 45 0 0 0
SMALL
GASTEIGER

@<TRIPOS>ATOM
      1 P          22.8513   71.4191   -2.3172 P.3     1  UNL1        0.2189
      2 O          22.4092   72.8955   -2.8108 O.co2   1  UNL1       -0.4371
      3 O          24.1857   70.9552   -2.8229 O.2     1  UNL1       -0.5170
      4 O          21.5888   70.4850   -2.7065 O.3     1  UNL1       -0.3112
      5 C          20.9367   70.7106   -3.9428 C.3     1  UNL1        0.1811
      6 O          18.9750   71.7258   -4.8909 O.3     1  UNL1       -0.3308
      7 O          17.4737   70.5444   -2.5796 O.3     1  UNL1       -0.3794
      8 O          16.8971   68.8176   -4.6098 O.3     1  UNL1       -0.3779
      9 C          18.5749   70.0061   -3.3118 C.3     1  UNL1        0.1713
     10 C          18.1158   69.5286   -4.6732 C.3     1  UNL1        0.1895
     11 C          19.5049   71.1558   -3.6744 C.3     1  UNL1        0.1764
     12 C          17.9919   70.8341   -5.4401 C.3     1  UNL1        0.2383
     13 H          16.8655   69.8283   -2.3367 H       1  UNL1        0.2105
     14 H          17.0284   67.9948   -4.1121 H       1  UNL1        0.2106
     15 O          15.9971   70.2858   -7.3627 O.2     1  UNL1       -0.2464
     16 O          19.0679   70.2270  -10.7993 O.2     1  UNL1       -0.2670
     17 N          18.2424   70.6707   -6.8442 N.ar    1  UNL1       -0.2551
     18 N          17.5286   70.2560   -9.0724 N.ar    1  UNL1       -0.2743
     19 C          17.1697   70.3972   -7.7254 C.ar    1  UNL1        0.3323
     20 C          19.5374   70.7831   -7.3354 C.ar    1  UNL1        0.0869
     21 C          19.8640   70.6461   -8.6220 C.ar    1  UNL1        0.0795
     22 C          18.8021   70.3584   -9.6084 C.ar    1  UNL1        0.2626
     23 H          16.7990   70.0632   -9.7047 H       1  UNL1        0.1734
     24 O          22.7413   71.5265   -0.7081 O.3     1  UNL1       -0.2703
     25 P          21.4545   71.6632    0.2611 P.3     1  UNL1        0.2208
     26 O          21.3651   70.2081    0.9647 O.co2   1  UNL1       -0.4371
     27 O          20.1975   72.0891   -0.4406 O.2     1  UNL1       -0.5170
     28 O          21.9330   72.6563    1.4390 O.3     1  UNL1       -0.2858
     29 O          23.3727   71.3063    2.7482 O.3     1  UNL1       -0.3226
     30 O          23.8659   75.0123    4.5063 O.3     1  UNL1       -0.3794
     31 O          21.2101   74.0936    3.7078 O.3     1  UNL1       -0.3775
     32 O          25.9283   73.9391    2.7612 O.3     1  UNL1       -0.3792
     33 C          23.6210   74.0999    3.4360 C.3     1  UNL1        0.1718
     34 C          22.3722   73.2732    3.7438 C.3     1  UNL1        0.1968
     35 C          24.8430   73.1884    3.3027 C.3     1  UNL1        0.1723
     36 C          22.2087   72.1336    2.7373 C.3     1  UNL1        0.2706
     37 C          24.5587   72.0069    2.3798 C.3     1  UNL1        0.1830
     38 H          23.1023   75.6019    4.6099 H       1  UNL1        0.2105
     39 H          21.3072   74.8191    4.3439 H       1  UNL1        0.2106
     40 H          26.1193   74.6943    3.3392 H       1  UNL1        0.2106
     41 O          25.0700   69.7537    2.7838 O.co2   1  UNL1       -0.5466
     42 O          26.8190   71.1629    2.3910 O.co2   1  UNL1       -0.5466
     43 C          25.6196   70.9632    2.5120 C.2     1  UNL1        0.0799
@<TRIPOS>UNITY_ATOM_ATTR
2 1
charge -1
26 1
charge -1
41 1
charge -1
@<TRIPOS>BOND
     1     1     4    1
     2     1    24    1
     3     1     2    1
     4     1     3    2
     5    25    28    1
     6    25    24    1
     7    25    26    1
     8    25    27    2
     9     6    11    1
    10     6    12    1
    11    29    36    1
    12    29    37    1
    13     7     9    1
    14     7    13    1
    15     8    10    1
    16     8    14    1
    17     4     5    1
    18    28    36    1
    19    30    33    1
    20    30    38    1
    21    31    34    1
    22    31    39    1
    23    32    35    1
    24    32    40    1
    25    41    43   ar
    26    15    19    2
    27    42    43   ar
    28    16    22    2
    29    17    12    1
    30    17    19   ar
    31    17    20   ar
    32    18    19   ar
    33    18    22   ar
    34    18    23    1
    35     9    10    1
    36     9    11    1
    37    10    12    1
    38    11     5    1
    39    33    34    1
    40    33    35    1
    41    34    36    1
    42    35    37    1
    43    37    43    1
    44    20    21   ar
    45    21    22   ar
@<TRIPOS>MOLECULE
*****
 43 45 0 0 0
SMALL
GASTEIGER

@<TRIPOS>ATOM
      1 P          21.5601   72.2680   -4.7420 P.3     1  UNL1        0.2189
      2 O          20.7407   73.6615   -4.8176 O.co2   1  UNL1       -0.4371
      3 O          22.7032   72.1521   -5.7072 O.2     1  UNL1       -0.5170
      4 O          20.4125   71.1349   -4.8727 O.3     1  UNL1       -0.3112
      5 C          19.7985   70.6550   -3.6907 C.3     1  UNL1        0.1811
      6 O          18.0367   71.6842   -4.9612 O.3     1  UNL1       -0.3308
      7 O          16.1427   70.4069   -3.0188 O.3     1  UNL1       -0.3794
      8 O          15.9909   68.7478   -5.1776 O.3     1  UNL1       -0.3779
      9 C          17.3716   69.9056   -3.5451 C.3     1  UNL1        0.1713
     10 C          17.1876   69.4723   -4.9840 C.3     1  UNL1        0.1895
     11 C          18.3348   71.0765   -3.6856 C.3     1  UNL1        0.1764
     12 C          17.1906   70.8030   -5.7169 C.3     1  UNL1        0.2383
     13 H          15.5111   69.6768   -2.9201 H       1  UNL1        0.2105
     14 H          16.0385   67.9091   -4.6914 H       1  UNL1        0.2106
     15 O          15.6017   70.3491   -8.0073 O.2     1  UNL1       -0.2464
     16 O          19.2761   70.3949  -10.7896 O.2     1  UNL1       -0.2670
     17 N          17.7061   70.6921   -7.0521 N.ar    1  UNL1       -0.2551
     18 N          17.4334   70.3713   -9.3907 N.ar    1  UNL1       -0.2743
     19 C          16.8224   70.4634   -8.1333 C.ar    1  UNL1        0.3323
     20 C          19.0717   70.8111   -7.2805 C.ar    1  UNL1        0.0869
     21 C          19.6393   70.7212   -8.4849 C.ar    1  UNL1        0.0795
     22 C          18.7864   70.4823   -9.6676 C.ar    1  UNL1        0.2626
     23 H          16.8387   70.2103  -10.1586 H       1  UNL1        0.1734
     24 O          21.9825   72.1794   -3.1843 O.3     1  UNL1       -0.2703
     25 P          23.4351   72.0726   -2.4828 P.3     1  UNL1        0.2208
     26 O          24.1388   73.4770   -2.8738 O.co2   1  UNL1       -0.4371
     27 O          24.2214   70.8560   -2.8772 O.2     1  UNL1       -0.5170
     28 O          23.1362   72.1932   -0.9021 O.3     1  UNL1       -0.2858
     29 O          24.4193   71.0768    0.7461 O.3     1  UNL1       -0.3226
     30 O          20.8804   71.7693    2.7622 O.3     1  UNL1       -0.3794
     31 O          20.8499   70.8778   -0.0197 O.3     1  UNL1       -0.3775
     32 O          23.2249   73.3915    3.3301 O.3     1  UNL1       -0.3792
     33 C          21.9190   72.0415    1.8212 C.3     1  UNL1        0.1718
     34 C          22.0058   70.8982    0.8099 C.3     1  UNL1        0.1968
     35 C          23.2343   72.1706    2.5928 C.3     1  UNL1        0.1723
     36 C          23.2483   71.0397   -0.0705 C.3     1  UNL1        0.2706
     37 C          24.4344   72.1790    1.6504 C.3     1  UNL1        0.1830
     38 H          20.0347   71.6831    2.2946 H       1  UNL1        0.2105
     39 H          20.0577   70.7885    0.5324 H       1  UNL1        0.2106
     40 H          22.4657   73.3990    3.9337 H       1  UNL1        0.2106
     41 O          26.1449   70.6983    2.2696 O.co2   1  UNL1       -0.5466
     42 O          26.2780   72.8316    3.0635 O.co2   1  UNL1       -0.5466
     43 C          25.7055   71.9737    2.4084 C.2     1  UNL1        0.0799
@<TRIPOS>UNITY_ATOM_ATTR
2 1
charge -1
26 1
charge -1
41 1
charge -1
@<TRIPOS>BOND
     1     1     4    1
     2     1    24    1
     3     1     2    1
     4     1     3    2
     5    25    28    1
     6    25    24    1
     7    25    26    1
     8    25    27    2
     9     6    11    1
    10     6    12    1
    11    29    36    1
    12    29    37    1
    13     7     9    1
    14     7    13    1
    15     8    10    1
    16     8    14    1
    17     4     5    1
    18    28    36    1
    19    30    33    1
    20    30    38    1
    21    31    34    1
    22    31    39    1
    23    32    35    1
    24    32    40    1
    25    41    43   ar
    26    15    19    2
    27    42    43   ar
    28    16    22    2
    29    17    12    1
    30    17    19   ar
    31    17    20   ar
    32    18    19   ar
    33    18    22   ar
    34    18    23    1
    35     9    10    1
    36     9    11    1
    37    10    12    1
    38    11     5    1
    39    33    34    1
    40    33    35    1
    41    34    36    1
    42    35    37    1
    43    37    43    1
    44    20    21   ar
    45    21    22   ar
@<TRIPOS>MOLECULE
*****
 43 45 0 0 0
SMALL
GASTEIGER

@<TRIPOS>ATOM
      1 P          20.4997   72.0788   -1.7062 P.3     1  UNL1        0.2189
      2 O          20.0058   70.7246   -0.9707 O.co2   1  UNL1       -0.4371
      3 O          20.0389   73.3536   -1.0626 O.2     1  UNL1       -0.5170
      4 O          20.0539   71.8686   -3.2473 O.3     1  UNL1       -0.3112
      5 C          19.3773   70.6756   -3.5987 C.3     1  UNL1        0.1811
      6 O          17.6307   71.5656   -4.9899 O.3     1  UNL1       -0.3308
      7 O          15.7188   70.0873   -3.2149 O.3     1  UNL1       -0.3794
      8 O          15.8834   68.4616   -5.3980 O.3     1  UNL1       -0.3779
      9 C          17.0247   69.7085   -3.6502 C.3     1  UNL1        0.1713
     10 C          16.9910   69.2871   -5.1040 C.3     1  UNL1        0.1895
     11 C          17.8851   70.9637   -3.7021 C.3     1  UNL1        0.1764
     12 C          16.9285   70.6261   -5.8190 C.3     1  UNL1        0.2383
     13 H          15.1507   69.3017   -3.1739 H       1  UNL1        0.2105
     14 H          15.9701   67.6218   -4.9193 H       1  UNL1        0.2106
     15 O          15.5220   70.5937   -8.2680 O.2     1  UNL1       -0.2464
     16 O          19.4246   70.4745  -10.7174 O.2     1  UNL1       -0.2670
     17 N          17.5520   70.5867   -7.1115 N.ar    1  UNL1       -0.2551
     18 N          17.4670   70.5334   -9.4856 N.ar    1  UNL1       -0.2743
     19 C          16.7542   70.5731   -8.2800 C.ar    1  UNL1        0.3323
     20 C          18.9377   70.5636   -7.2126 C.ar    1  UNL1        0.0869
     21 C          19.6029   70.5259   -8.3689 C.ar    1  UNL1        0.0795
     22 C          18.8440   70.5086   -9.6366 C.ar    1  UNL1        0.2626
     23 H          16.9331   70.5212  -10.3127 H       1  UNL1        0.1734
     24 O          22.1047   71.8956   -1.7641 O.3     1  UNL1       -0.2703
     25 P          23.2285   72.0102   -0.6075 P.3     1  UNL1        0.2208
     26 O          23.9292   73.4371   -0.9129 O.co2   1  UNL1       -0.4371
     27 O          24.1816   70.8513   -0.5579 O.2     1  UNL1       -0.5170
     28 O          22.3937   72.2492    0.7520 O.3     1  UNL1       -0.2858
     29 O          24.0698   71.3526    2.1648 O.3     1  UNL1       -0.3226
     30 O          21.9853   73.7860    4.7728 O.3     1  UNL1       -0.3794
     31 O          20.5601   72.1228    2.8396 O.3     1  UNL1       -0.3775
     32 O          24.5723   74.6251    3.7462 O.3     1  UNL1       -0.3792
     33 C          22.5209   73.3833    3.5123 C.3     1  UNL1        0.1718
     34 C          21.9500   72.0186    3.1260 C.3     1  UNL1        0.1968
     35 C          24.0431   73.3041    3.6488 C.3     1  UNL1        0.1723
     36 C          22.6696   71.4512    1.9017 C.3     1  UNL1        0.2706
     37 C          24.6753   72.6130    2.4441 C.3     1  UNL1        0.1830
     38 H          21.0188   73.8431    4.7103 H       1  UNL1        0.2105
     39 H          20.0973   72.4825    3.6121 H       1  UNL1        0.2106
     40 H          24.1779   75.0760    4.5090 H       1  UNL1        0.2106
     41 O          26.7675   73.3041    3.2481 O.co2   1  UNL1       -0.5466
     42 O          26.5916   71.1492    2.5238 O.co2   1  UNL1       -0.5466
     43 C          26.0959   72.2472    2.7275 C.2     1  UNL1        0.0799
@<TRIPOS>UNITY_ATOM_ATTR
2 1
charge -1
26 1
charge -1
41 1
charge -1
@<TRIPOS>BOND
     1     1     4    1
     2     1    24    1
     3     1     2    1
     4     1     3    2
     5    25    28    1
     6    25    24    1
     7    25    26    1
     8    25    27    2
     9     6    11    1
    10     6    12    1
    11    29    36    1
    12    29    37    1
    13     7     9    1
    14     7    13    1
    15     8    10    1
    16     8    14    1
    17     4     5    1
    18    28    36    1
    19    30    33    1
    20    30    38    1
    21    31    34    1
    22    31    39    1
    23    32    35    1
    24    32    40    1
    25    41    43   ar
    26    15    19    2
    27    42    43   ar
    28    16    22    2
    29    17    12    1
    30    17    19   ar
    31    17    20   ar
    32    18    19   ar
    33    18    22   ar
    34    18    23    1
    35     9    10    1
    36     9    11    1
    37    10    12    1
    38    11     5    1
    39    33    34    1
    40    33    35    1
    41    34    36    1
    42    35    37    1
    43    37    43    1
    44    20    21   ar
    45    21    22   ar
@<TRIPOS>MOLECULE
*****
 43 45 0 0 0
SMALL
GASTEIGER

@<TRIPOS>ATOM
      1 P          22.9721   71.3810   -2.3137 P.3     1  UNL1        0.2189
      2 O          22.7557   72.9847   -2.3238 O.co2   1  UNL1       -0.4371
      3 O          24.1696   70.8985   -3.0786 O.2     1  UNL1       -0.5170
      4 O          21.5449   70.7932   -2.7989 O.3     1  UNL1       -0.3112
      5 C          20.9264   71.3708   -3.9340 C.3     1  UNL1        0.1811
      6 O          18.7984   71.9769   -4.8729 O.3     1  UNL1       -0.3308
      7 O          17.5723   70.6033   -2.5062 O.3     1  UNL1       -0.3794
      8 O          17.3017   68.7426   -4.4812 O.3     1  UNL1       -0.3779
      9 C          18.7451   70.2583   -3.2437 C.3     1  UNL1        0.1713
     10 C          18.3658   69.6654   -4.5842 C.3     1  UNL1        0.1895
     11 C          19.4403   71.5499   -3.6519 C.3     1  UNL1        0.1764
     12 C          17.9916   70.9029   -5.3819 C.3     1  UNL1        0.2383
     13 H          17.1110   69.7939   -2.2345 H       1  UNL1        0.2105
     14 H          17.5900   67.9729   -3.9650 H       1  UNL1        0.2106
     15 O          16.0144   70.3261   -7.3144 O.2     1  UNL1       -0.2464
     16 O          19.0993   70.3346  -10.7389 O.2     1  UNL1       -0.2670
     17 N          18.2504   70.7491   -6.7855 N.ar    1  UNL1       -0.2551
     18 N          17.5529   70.3299   -9.0180 N.ar    1  UNL1       -0.2743
     19 C          17.1862   70.4598   -7.6720 C.ar    1  UNL1        0.3323
     20 C          19.5451   70.8864   -7.2712 C.ar    1  UNL1        0.0869
     21 C          19.8791   70.7599   -8.5569 C.ar    1  UNL1        0.0795
     22 C          18.8264   70.4569   -9.5486 C.ar    1  UNL1        0.2626
     23 H          16.8293   70.1265   -9.6539 H       1  UNL1        0.1734
     24 O          22.9934   71.0276   -0.7365 O.3     1  UNL1       -0.2703
     25 P          22.0030   71.4674    0.4633 P.3     1  UNL1        0.2208
     26 O          21.7232   70.0756    1.2409 O.co2   1  UNL1       -0.4371
     27 O          20.7634   72.1815    0.0079 O.2     1  UNL1       -0.5170
     28 O          22.9331   72.3171    1.4711 O.3     1  UNL1       -0.2858
     29 O          22.3627   73.8409    3.1920 O.3     1  UNL1       -0.3226
     30 O          25.8935   75.4534    1.7774 O.3     1  UNL1       -0.3794
     31 O          23.8894   74.4189   -0.0794 O.3     1  UNL1       -0.3775
     32 O          25.8589   73.9985    4.2939 O.3     1  UNL1       -0.3792
     33 C          24.9713   74.4102    2.0921 C.3     1  UNL1        0.1718
     34 C          23.6734   74.6219    1.3123 C.3     1  UNL1        0.1968
     35 C          24.7012   74.4561    3.5977 C.3     1  UNL1        0.1723
     36 C          22.5838   73.6622    1.7925 C.3     1  UNL1        0.2706
     37 C          23.5200   73.5685    3.9791 C.3     1  UNL1        0.1830
     38 H          26.0803   75.4438    0.8254 H       1  UNL1        0.2105
     39 H          24.5798   75.0245   -0.3907 H       1  UNL1        0.2106
     40 H          26.6181   74.5550    4.0598 H       1  UNL1        0.2106
     41 O          23.2297   75.1812    5.6574 O.co2   1  UNL1       -0.5466
     42 O          22.5888   73.0476    6.1431 O.co2   1  UNL1       -0.5466
     43 C          23.0587   73.8673    5.3685 C.2     1  UNL1        0.0799
@<TRIPOS>UNITY_ATOM_ATTR
2 1
charge -1
26 1
charge -1
41 1
charge -1
@<TRIPOS>BOND
     1     1     4    1
     2     1    24    1
     3     1     2    1
     4     1     3    2
     5    25    28    1
     6    25    24    1
     7    25    26    1
     8    25    27    2
     9     6    11    1
    10     6    12    1
    11    29    36    1
    12    29    37    1
    13     7     9    1
    14     7    13    1
    15     8    10    1
    16     8    14    1
    17     4     5    1
    18    28    36    1
    19    30    33    1
    20    30    38    1
    21    31    34    1
    22    31    39    1
    23    32    35    1
    24    32    40    1
    25    41    43   ar
    26    15    19    2
    27    42    43   ar
    28    16    22    2
    29    17    12    1
    30    17    19   ar
    31    17    20   ar
    32    18    19   ar
    33    18    22   ar
    34    18    23    1
    35     9    10    1
    36     9    11    1
    37    10    12    1
    38    11     5    1
    39    33    34    1
    40    33    35    1
    41    34    36    1
    42    35    37    1
    43    37    43    1
    44    20    21   ar
    45    21    22   ar
@<TRIPOS>MOLECULE
*****
 43 45 0 0 0
SMALL
GASTEIGER

@<TRIPOS>ATOM
      1 P          23.4521   71.8875   -3.2930 P.3     1  UNL1        0.2189
      2 O          24.1434   72.9148   -4.3350 O.co2   1  UNL1       -0.4371
      3 O          24.2666   70.6692   -2.9698 O.2     1  UNL1       -0.5170
      4 O          21.9930   71.6075   -3.9337 O.3     1  UNL1       -0.3112
      5 C          21.5085   72.4943   -4.9253 C.3     1  UNL1        0.1811
      6 O          20.5550   70.5379   -5.9456 O.3     1  UNL1       -0.3308
      7 O          20.8654   71.9767   -8.5580 O.3     1  UNL1       -0.3794
      8 O          18.2167   72.3127   -8.0038 O.3     1  UNL1       -0.3779
      9 C          20.5282   72.4995   -7.2729 C.3     1  UNL1        0.1713
     10 C          19.1018   72.1370   -6.9175 C.3     1  UNL1        0.1895
     11 C          21.3229   71.7277   -6.2284 C.3     1  UNL1        0.1764
     12 C          19.2398   70.6814   -6.5050 C.3     1  UNL1        0.2383
     13 H          20.3698   72.4544   -9.2420 H       1  UNL1        0.2105
     14 H          18.1630   73.2555   -8.2279 H       1  UNL1        0.2106
     15 O          16.6198   69.8128   -7.1029 O.2     1  UNL1       -0.2464
     16 O          15.6000   69.2300   -2.6460 O.2     1  UNL1       -0.2670
     17 N          18.2688   70.2965   -5.5202 N.ar    1  UNL1       -0.2551
     18 N          16.1140   69.5243   -4.8825 N.ar    1  UNL1       -0.2743
     19 C          16.9804   69.8754   -5.9261 C.ar    1  UNL1        0.3323
     20 C          18.5966   70.3367   -4.1704 C.ar    1  UNL1        0.0869
     21 C          17.7601   69.9988   -3.1871 C.ar    1  UNL1        0.0795
     22 C          16.3941   69.5485   -3.5258 C.ar    1  UNL1        0.2626
     23 H          15.2106   69.2299   -5.1403 H       1  UNL1        0.1734
     24 O          23.1167   72.8296   -2.0231 O.3     1  UNL1       -0.2703
     25 P          21.8861   72.7999   -0.9751 P.3     1  UNL1        0.2208
     26 O          21.6944   71.2210   -0.6743 O.co2   1  UNL1       -0.4371
     27 O          20.6458   73.4917   -1.4621 O.2     1  UNL1       -0.5170
     28 O          22.4969   73.4034    0.3906 O.3     1  UNL1       -0.2858
     29 O          23.3176   71.7003    1.8172 O.3     1  UNL1       -0.3226
     30 O          23.7258   75.0557    4.1926 O.3     1  UNL1       -0.3794
     31 O          21.3260   74.6721    2.5714 O.3     1  UNL1       -0.3775
     32 O          26.0598   73.8696    2.9291 O.3     1  UNL1       -0.3792
     33 C          23.6936   74.3216    2.9686 C.3     1  UNL1        0.1718
     34 C          22.3182   73.6769    2.7946 C.3     1  UNL1        0.1968
     35 C          24.7809   73.2467    3.0332 C.3     1  UNL1        0.1723
     36 C          22.3170   72.6997    1.6183 C.3     1  UNL1        0.2706
     37 C          24.6356   72.2384    1.8971 C.3     1  UNL1        0.1830
     38 H          23.0430   75.7448    4.1746 H       1  UNL1        0.2105
     39 H          21.3214   75.2958    3.3139 H       1  UNL1        0.2106
     40 H          26.1650   74.5140    3.6465 H       1  UNL1        0.2106
     41 O          24.7520   69.8970    1.9738 O.co2   1  UNL1       -0.5466
     42 O          26.6559   71.0498    2.4690 O.co2   1  UNL1       -0.5466
     43 C          25.4766   71.0296    2.1498 C.2     1  UNL1        0.0799
@<TRIPOS>UNITY_ATOM_ATTR
2 1
charge -1
26 1
charge -1
41 1
charge -1
@<TRIPOS>BOND
     1     1     4    1
     2     1    24    1
     3     1     2    1
     4     1     3    2
     5    25    28    1
     6    25    24    1
     7    25    26    1
     8    25    27    2
     9     6    11    1
    10     6    12    1
    11    29    36    1
    12    29    37    1
    13     7     9    1
    14     7    13    1
    15     8    10    1
    16     8    14    1
    17     4     5    1
    18    28    36    1
    19    30    33    1
    20    30    38    1
    21    31    34    1
    22    31    39    1
    23    32    35    1
    24    32    40    1
    25    41    43   ar
    26    15    19    2
    27    42    43   ar
    28    16    22    2
    29    17    12    1
    30    17    19   ar
    31    17    20   ar
    32    18    19   ar
    33    18    22   ar
    34    18    23    1
    35     9    10    1
    36     9    11    1
    37    10    12    1
    38    11     5    1
    39    33    34    1
    40    33    35    1
    41    34    36    1
    42    35    37    1
    43    37    43    1
    44    20    21   ar
    45    21    22   ar
@<TRIPOS>MOLECULE
*****
 43 45 0 0 0
SMALL
GASTEIGER

@<TRIPOS>ATOM
      1 P          20.8844   71.3734   -1.9685 P.3     1  UNL1        0.2189
      2 O          20.2010   72.8019   -2.3020 O.co2   1  UNL1       -0.4371
      3 O          22.1826   71.1120   -2.6743 O.2     1  UNL1       -0.5170
      4 O          19.7040   70.3030   -2.2493 O.3     1  UNL1       -0.3112
      5 C          19.2689   70.1106   -3.5828 C.3     1  UNL1        0.1811
      6 O          17.6460   71.2614   -4.9317 O.3     1  UNL1       -0.3308
      7 O          15.5640   69.8121   -3.3329 O.3     1  UNL1       -0.3794
      8 O          15.6554   68.3655   -5.6427 O.3     1  UNL1       -0.3779
      9 C          16.8456   69.3589   -3.7695 C.3     1  UNL1        0.1713
     10 C          16.8195   69.0645   -5.2544 C.3     1  UNL1        0.1895
     11 C          17.8101   70.5346   -3.6947 C.3     1  UNL1        0.1764
     12 C          16.8917   70.4587   -5.8536 C.3     1  UNL1        0.2383
     13 H          14.9305   69.0780   -3.3719 H       1  UNL1        0.2105
     14 H          15.6565   67.4844   -5.2357 H       1  UNL1        0.2106
     15 O          15.5517   70.6376   -8.3333 O.2     1  UNL1       -0.2464
     16 O          19.5110   70.5052  -10.6894 O.2     1  UNL1       -0.2670
     17 N          17.5478   70.4730   -7.1304 N.ar    1  UNL1       -0.2551
     18 N          17.5249   70.5705   -9.5045 N.ar    1  UNL1       -0.2743
     19 C          16.7820   70.5656   -8.3166 C.ar    1  UNL1        0.3323
     20 C          18.9337   70.3976   -7.1989 C.ar    1  UNL1        0.0869
     21 C          19.6277   70.4035   -8.3387 C.ar    1  UNL1        0.0795
     22 C          18.9033   70.4968   -9.6231 C.ar    1  UNL1        0.2626
     23 H          17.0134   70.6321  -10.3435 H       1  UNL1        0.1734
     24 O          20.9859   71.3875   -0.3553 O.3     1  UNL1       -0.2703
     25 P          22.2657   71.4949    0.6267 P.3     1  UNL1        0.2208
     26 O          23.4805   70.9379   -0.2866 O.co2   1  UNL1       -0.4371
     27 O          22.0986   70.7801    1.9364 O.2     1  UNL1       -0.5170
     28 O          22.5483   73.0776    0.7591 O.3     1  UNL1       -0.2858
     29 O          24.5268   74.1744    0.0577 O.3     1  UNL1       -0.3226
     30 O          23.1367   76.7380    2.9841 O.3     1  UNL1       -0.3794
     31 O          23.0481   73.8457    3.3852 O.3     1  UNL1       -0.3775
     32 O          22.8366   77.4288    0.1763 O.3     1  UNL1       -0.3792
     33 C          23.0266   75.7847    1.9272 C.3     1  UNL1        0.1718
     34 C          23.7424   74.4938    2.3258 C.3     1  UNL1        0.1968
     35 C          23.6724   76.3873    0.6775 C.3     1  UNL1        0.1723
     36 C          23.8449   73.5359    1.1380 C.3     1  UNL1        0.2706
     37 C          23.8544   75.3390   -0.4162 C.3     1  UNL1        0.1830
     38 H          22.7330   76.3768    3.7889 H       1  UNL1        0.2105
     39 H          22.9792   74.4479    4.1422 H       1  UNL1        0.2106
     40 H          22.7127   78.1027    0.8629 H       1  UNL1        0.2106
     41 O          24.9102   74.9168   -2.4677 O.co2   1  UNL1       -0.5466
     42 O          25.3138   76.9349   -1.4860 O.co2   1  UNL1       -0.5466
     43 C          24.7680   75.8417   -1.4862 C.2     1  UNL1        0.0799
@<TRIPOS>UNITY_ATOM_ATTR
2 1
charge -1
26 1
charge -1
41 1
charge -1
@<TRIPOS>BOND
     1     1     4    1
     2     1    24    1
     3     1     2    1
     4     1     3    2
     5    25    28    1
     6    25    24    1
     7    25    26    1
     8    25    27    2
     9     6    11    1
    10     6    12    1
    11    29    36    1
    12    29    37    1
    13     7     9    1
    14     7    13    1
    15     8    10    1
    16     8    14    1
    17     4     5    1
    18    28    36    1
    19    30    33    1
    20    30    38    1
    21    31    34    1
    22    31    39    1
    23    32    35    1
    24    32    40    1
    25    41    43   ar
    26    15    19    2
    27    42    43   ar
    28    16    22    2
    29    17    12    1
    30    17    19   ar
    31    17    20   ar
    32    18    19   ar
    33    18    22   ar
    34    18    23    1
    35     9    10    1
    36     9    11    1
    37    10    12    1
    38    11     5    1
    39    33    34    1
    40    33    35    1
    41    34    36    1
    42    35    37    1
    43    37    43    1
    44    20    21   ar
    45    21    22   ar
@<TRIPOS>MOLECULE
*****
 43 45 0 0 0
SMALL
GASTEIGER

@<TRIPOS>ATOM
      1 P          20.8411   71.2795   -1.7779 P.3     1  UNL1        0.2189
      2 O          20.2483   72.7309   -2.1793 O.co2   1  UNL1       -0.4371
      3 O          22.1477   70.9274   -2.4265 O.2     1  UNL1       -0.5170
      4 O          19.6153   70.2647   -2.0706 O.3     1  UNL1       -0.3112
      5 C          19.1911   70.0854   -3.4094 C.3     1  UNL1        0.1811
      6 O          17.6015   71.2915   -4.7497 O.3     1  UNL1       -0.3308
      7 O          15.4799   69.8144   -3.2303 O.3     1  UNL1       -0.3794
      8 O          15.5974   68.4372   -5.5809 O.3     1  UNL1       -0.3779
      9 C          16.7646   69.3625   -3.6590 C.3     1  UNL1        0.1713
     10 C          16.7610   69.1132   -5.1524 C.3     1  UNL1        0.1895
     11 C          17.7382   70.5263   -3.5327 C.3     1  UNL1        0.1764
     12 C          16.8558   70.5239   -5.7079 C.3     1  UNL1        0.2383
     13 H          14.8407   69.0878   -3.3020 H       1  UNL1        0.2105
     14 H          15.5838   67.5442   -5.2008 H       1  UNL1        0.2106
     15 O          15.5563   70.5010   -8.2154 O.2     1  UNL1       -0.2464
     16 O          19.5569   70.7061  -10.4952 O.2     1  UNL1       -0.2670
     17 N          17.5335   70.5705   -6.9726 N.ar    1  UNL1       -0.2551
     18 N          17.5501   70.6022   -9.3485 N.ar    1  UNL1       -0.2743
     19 C          16.7870   70.5540   -8.1745 C.ar    1  UNL1        0.3323
     20 C          18.9210   70.6335   -7.0140 C.ar    1  UNL1        0.0869
     21 C          19.6345   70.6790   -8.1408 C.ar    1  UNL1        0.0795
     22 C          18.9312   70.6648   -9.4402 C.ar    1  UNL1        0.2626
     23 H          17.0526   70.5897  -10.1980 H       1  UNL1        0.1734
     24 O          20.8854   71.3396   -0.1632 O.3     1  UNL1       -0.2703
     25 P          22.1263   71.5104    0.8589 P.3     1  UNL1        0.2208
     26 O          23.0796   72.5814    0.1076 O.co2   1  UNL1       -0.4371
     27 O          22.8080   70.2225    1.2204 O.2     1  UNL1       -0.5170
     28 O          21.5148   72.3193    2.1135 O.3     1  UNL1       -0.2858
     29 O          20.3841   74.3981    2.2096 O.3     1  UNL1       -0.3226
     30 O          22.4298   74.3872    5.7988 O.3     1  UNL1       -0.3794
     31 O          23.7284   73.4611    3.3514 O.3     1  UNL1       -0.3775
     32 O          19.5712   73.8610    5.7469 O.3     1  UNL1       -0.3792
     33 C          21.7368   73.8103    4.6921 C.3     1  UNL1        0.1718
     34 C          22.4784   74.1393    3.3962 C.3     1  UNL1        0.1968
     35 C          20.3240   74.3975    4.6606 C.3     1  UNL1        0.1723
     36 C          21.6500   73.7380    2.1749 C.3     1  UNL1        0.2706
     37 C          19.6083   74.0576    3.3564 C.3     1  UNL1        0.1830
     38 H          23.3305   74.0289    5.8390 H       1  UNL1        0.2105
     39 H          24.2592   73.7108    4.1236 H       1  UNL1        0.2106
     40 H          20.0161   74.0702    6.5831 H       1  UNL1        0.2106
     41 O          17.8408   74.7128    1.9608 O.co2   1  UNL1       -0.5466
     42 O          17.9192   75.6375    4.0436 O.co2   1  UNL1       -0.5466
     43 C          18.3809   74.8933    3.1915 C.2     1  UNL1        0.0799
@<TRIPOS>UNITY_ATOM_ATTR
2 1
charge -1
26 1
charge -1
41 1
charge -1
@<TRIPOS>BOND
     1     1     4    1
     2     1    24    1
     3     1     2    1
     4     1     3    2
     5    25    28    1
     6    25    24    1
     7    25    26    1
     8    25    27    2
     9     6    11    1
    10     6    12    1
    11    29    36    1
    12    29    37    1
    13     7     9    1
    14     7    13    1
    15     8    10    1
    16     8    14    1
    17     4     5    1
    18    28    36    1
    19    30    33    1
    20    30    38    1
    21    31    34    1
    22    31    39    1
    23    32    35    1
    24    32    40    1
    25    41    43   ar
    26    15    19    2
    27    42    43   ar
    28    16    22    2
    29    17    12    1
    30    17    19   ar
    31    17    20   ar
    32    18    19   ar
    33    18    22   ar
    34    18    23    1
    35     9    10    1
    36     9    11    1
    37    10    12    1
    38    11     5    1
    39    33    34    1
    40    33    35    1
    41    34    36    1
    42    35    37    1
    43    37    43    1
    44    20    21   ar
    45    21    22   ar
@<TRIPOS>MOLECULE
*****
 43 45 0 0 0
SMALL
GASTEIGER

@<TRIPOS>ATOM
      1 P          22.6905   73.1906   -4.9545 P.3     1  UNL1        0.2189
      2 O          22.9687   73.8834   -6.3903 O.co2   1  UNL1       -0.4371
      3 O          23.8138   72.3443   -4.4311 O.2     1  UNL1       -0.5170
      4 O          21.2752   72.4329   -5.1564 O.3     1  UNL1       -0.3112
      5 C          20.7824   71.6283   -4.1009 C.3     1  UNL1        0.1811
      6 O          18.7483   72.2598   -5.2151 O.3     1  UNL1       -0.3308
      7 O          17.3133   71.1181   -2.8426 O.3     1  UNL1       -0.3794
      8 O          17.0722   69.1331   -4.6966 O.3     1  UNL1       -0.3779
      9 C          18.5105   70.6681   -3.4771 C.3     1  UNL1        0.1713
     10 C          18.1850   69.9971   -4.7947 C.3     1  UNL1        0.1895
     11 C          19.2924   71.8941   -3.9284 C.3     1  UNL1        0.1764
     12 C          17.9220   71.1891   -5.6991 C.3     1  UNL1        0.2383
     13 H          16.7968   70.3522   -2.5455 H       1  UNL1        0.2105
     14 H          17.2900   68.3907   -4.1106 H       1  UNL1        0.2106
     15 O          16.1197   70.1535   -7.6111 O.2     1  UNL1       -0.2464
     16 O          19.3217   70.2053  -10.9260 O.2     1  UNL1       -0.2670
     17 N          18.2583   70.9223   -7.0690 N.ar    1  UNL1       -0.2551
     18 N          17.7165   70.1793   -9.2600 N.ar    1  UNL1       -0.2743
     19 C          17.2789   70.4021   -7.9478 C.ar    1  UNL1        0.3323
     20 C          19.5442   71.1771   -7.5297 C.ar    1  UNL1        0.0869
     21 C          19.9464   70.9598   -8.7834 C.ar    1  UNL1        0.0795
     22 C          18.9847   70.4164   -9.7649 C.ar    1  UNL1        0.2626
     23 H          17.0529   69.8154   -9.8897 H       1  UNL1        0.1734
     24 O          22.2995   74.4466   -4.0152 O.3     1  UNL1       -0.2703
     25 P          23.1421   75.2206   -2.8730 P.3     1  UNL1        0.2208
     26 O          22.0618   76.2548   -2.2534 O.co2   1  UNL1       -0.4371
     27 O          24.4029   75.8670   -3.3694 O.2     1  UNL1       -0.5170
     28 O          23.3650   74.1215   -1.7133 O.3     1  UNL1       -0.2858
     29 O          21.7730   73.0863   -0.2980 O.3     1  UNL1       -0.3226
     30 O          25.1169   73.1818    2.1263 O.3     1  UNL1       -0.3794
     31 O          24.4242   75.4846    0.4675 O.3     1  UNL1       -0.3775
     32 O          24.2891   70.6895    0.8796 O.3     1  UNL1       -0.3792
     33 C          24.4038   73.0961    0.8926 C.3     1  UNL1        0.1718
     34 C          23.5750   74.3650    0.6914 C.3     1  UNL1        0.1968
     35 C          23.4913   71.8693    0.9580 C.3     1  UNL1        0.1723
     36 C          22.6248   74.2151   -0.4975 C.3     1  UNL1        0.2706
     37 C          22.4895   71.8581   -0.1930 C.3     1  UNL1        0.1830
     38 H          25.7035   73.9544    2.1079 H       1  UNL1        0.2105
     39 H          25.0301   75.5855    1.2180 H       1  UNL1        0.2106
     40 H          24.9311   70.6844    1.6067 H       1  UNL1        0.2106
     41 O          21.6236   70.1982    1.2200 O.co2   1  UNL1       -0.5466
     42 O          20.4538   70.6589   -0.6822 O.co2   1  UNL1       -0.5466
     43 C          21.4072   70.8585    0.0555 C.2     1  UNL1        0.0799
@<TRIPOS>UNITY_ATOM_ATTR
2 1
charge -1
26 1
charge -1
41 1
charge -1
@<TRIPOS>BOND
     1     1     4    1
     2     1    24    1
     3     1     2    1
     4     1     3    2
     5    25    28    1
     6    25    24    1
     7    25    26    1
     8    25    27    2
     9     6    11    1
    10     6    12    1
    11    29    36    1
    12    29    37    1
    13     7     9    1
    14     7    13    1
    15     8    10    1
    16     8    14    1
    17     4     5    1
    18    28    36    1
    19    30    33    1
    20    30    38    1
    21    31    34    1
    22    31    39    1
    23    32    35    1
    24    32    40    1
    25    41    43   ar
    26    15    19    2
    27    42    43   ar
    28    16    22    2
    29    17    12    1
    30    17    19   ar
    31    17    20   ar
    32    18    19   ar
    33    18    22   ar
    34    18    23    1
    35     9    10    1
    36     9    11    1
    37    10    12    1
    38    11     5    1
    39    33    34    1
    40    33    35    1
    41    34    36    1
    42    35    37    1
    43    37    43    1
    44    20    21   ar
    45    21    22   ar
@<TRIPOS>MOLECULE
*****
 43 45 0 0 0
SMALL
GASTEIGER

@<TRIPOS>ATOM
      1 P          20.2336   71.6072   -1.4933 P.3     1  UNL1        0.2189
      2 O          21.3696   72.6129   -2.0563 O.co2   1  UNL1       -0.4371
      3 O          20.7420   70.5129   -0.6012 O.2     1  UNL1       -0.5170
      4 O          19.4500   71.1225   -2.8233 O.3     1  UNL1       -0.3112
      5 C          18.9343   72.1068   -3.7007 C.3     1  UNL1        0.1811
      6 O          17.0926   72.1139   -5.2452 O.3     1  UNL1       -0.3308
      7 O          15.6081   70.5076   -3.1940 O.3     1  UNL1       -0.3794
      8 O          16.3947   68.6069   -4.9842 O.3     1  UNL1       -0.3779
      9 C          16.9923   70.4710   -3.5419 C.3     1  UNL1        0.1713
     10 C          17.1799   69.7756   -4.8736 C.3     1  UNL1        0.1895
     11 C          17.4346   71.8928   -3.8598 C.3     1  UNL1        0.1764
     12 C          16.7612   70.8566   -5.8555 C.3     1  UNL1        0.2383
     13 H          15.3026   69.6102   -2.9866 H       1  UNL1        0.2105
     14 H          16.7006   67.9497   -4.3389 H       1  UNL1        0.2106
     15 O          15.4779   70.6564   -8.3634 O.2     1  UNL1       -0.2464
     16 O          19.4978   70.4595  -10.6095 O.2     1  UNL1       -0.2670
     17 N          17.4483   70.7518   -7.1116 N.ar    1  UNL1       -0.2551
     18 N          17.4813   70.5575   -9.4796 N.ar    1  UNL1       -0.2743
     19 C          16.7093   70.6560   -8.3145 C.ar    1  UNL1        0.3323
     20 C          18.8375   70.7463   -7.1440 C.ar    1  UNL1        0.0869
     21 C          19.5593   70.6519   -8.2624 C.ar    1  UNL1        0.0795
     22 C          18.8642   70.5472   -9.5621 C.ar    1  UNL1        0.2626
     23 H          16.9890   70.4876  -10.3294 H       1  UNL1        0.1734
     24 O          19.1761   72.6097   -0.7935 O.3     1  UNL1       -0.2703
     25 P          19.3873   74.0424   -0.0750 P.3     1  UNL1        0.2208
     26 O          18.0727   74.1852    0.8587 O.co2   1  UNL1       -0.4371
     27 O          19.5964   75.1840   -1.0273 O.2     1  UNL1       -0.5170
     28 O          20.5997   73.8052    0.9625 O.3     1  UNL1       -0.2858
     29 O          21.4054   71.8535    2.0352 O.3     1  UNL1       -0.3226
     30 O          21.9922   74.7192    4.9525 O.3     1  UNL1       -0.3794
     31 O          19.5350   74.6959    3.3727 O.3     1  UNL1       -0.3775
     32 O          24.2484   73.7147    3.4190 O.3     1  UNL1       -0.3792
     33 C          21.9004   74.2163    3.6197 C.3     1  UNL1        0.1718
     34 C          20.5001   73.6504    3.3816 C.3     1  UNL1        0.1968
     35 C          22.9533   73.1180    3.4550 C.3     1  UNL1        0.1723
     36 C          20.4327   72.8990    2.0513 C.3     1  UNL1        0.2706
     37 C          22.7421   72.3328    2.1638 C.3     1  UNL1        0.1830
     38 H          21.3321   75.4186    5.0806 H       1  UNL1        0.2105
     39 H          19.5725   75.1771    4.2138 H       1  UNL1        0.2106
     40 H          24.3954   74.2177    4.2353 H       1  UNL1        0.2106
     41 O          23.3165   70.3522    1.0463 O.co2   1  UNL1       -0.5466
     42 O          24.3194   70.7404    3.0569 O.co2   1  UNL1       -0.5466
     43 C          23.5501   71.0760    2.1690 C.2     1  UNL1        0.0799
@<TRIPOS>UNITY_ATOM_ATTR
2 1
charge -1
26 1
charge -1
41 1
charge -1
@<TRIPOS>BOND
     1     1     4    1
     2     1    24    1
     3     1     2    1
     4     1     3    2
     5    25    28    1
     6    25    24    1
     7    25    26    1
     8    25    27    2
     9     6    11    1
    10     6    12    1
    11    29    36    1
    12    29    37    1
    13     7     9    1
    14     7    13    1
    15     8    10    1
    16     8    14    1
    17     4     5    1
    18    28    36    1
    19    30    33    1
    20    30    38    1
    21    31    34    1
    22    31    39    1
    23    32    35    1
    24    32    40    1
    25    41    43   ar
    26    15    19    2
    27    42    43   ar
    28    16    22    2
    29    17    12    1
    30    17    19   ar
    31    17    20   ar
    32    18    19   ar
    33    18    22   ar
    34    18    23    1
    35     9    10    1
    36     9    11    1
    37    10    12    1
    38    11     5    1
    39    33    34    1
    40    33    35    1
    41    34    36    1
    42    35    37    1
    43    37    43    1
    44    20    21   ar
    45    21    22   ar
@<TRIPOS>MOLECULE
*****
 43 45 0 0 0
SMALL
GASTEIGER

@<TRIPOS>ATOM
      1 P          23.4537   72.0146   -3.3966 P.3     1  UNL1        0.2189
      2 O          24.1425   72.9520   -4.5217 O.co2   1  UNL1       -0.4371
      3 O          24.2650   70.8222   -2.9821 O.2     1  UNL1       -0.5170
      4 O          21.9892   71.6913   -4.0036 O.3     1  UNL1       -0.3112
      5 C          21.4718   72.5418   -5.0104 C.3     1  UNL1        0.1811
      6 O          20.5440   70.5440   -5.9724 O.3     1  UNL1       -0.3308
      7 O          20.8080   71.9209   -8.6231 O.3     1  UNL1       -0.3794
      8 O          18.1584   72.2255   -8.0546 O.3     1  UNL1       -0.3779
      9 C          20.4723   72.4705   -7.3488 C.3     1  UNL1        0.1713
     10 C          19.0554   72.0928   -6.9719 C.3     1  UNL1        0.1895
     11 C          21.2888   71.7392   -6.2920 C.3     1  UNL1        0.1764
     12 C          19.2220   70.6507   -6.5240 C.3     1  UNL1        0.2383
     13 H          20.2985   72.3724   -9.3147 H       1  UNL1        0.2105
     14 H          18.0866   73.1613   -8.3021 H       1  UNL1        0.2106
     15 O          16.6075   69.7363   -7.0764 O.2     1  UNL1       -0.2464
     16 O          15.6400   69.2353   -2.5979 O.2     1  UNL1       -0.2670
     17 N          18.2660   70.2745   -5.5212 N.ar    1  UNL1       -0.2551
     18 N          16.1278   69.4886   -4.8453 N.ar    1  UNL1       -0.2743
     19 C          16.9791   69.8285   -5.9049 C.ar    1  UNL1        0.3323
     20 C          18.6067   70.3474   -4.1761 C.ar    1  UNL1        0.0869
     21 C          17.7845   70.0199   -3.1773 C.ar    1  UNL1        0.0795
     22 C          16.4211   69.5451   -3.4924 C.ar    1  UNL1        0.2626
     23 H          15.2258   69.1773   -5.0876 H       1  UNL1        0.1734
     24 O          23.1308   73.0568   -2.2039 O.3     1  UNL1       -0.2703
     25 P          23.3084   72.9254   -0.6024 P.3     1  UNL1        0.2208
     26 O          21.8025   73.1308   -0.0452 O.co2   1  UNL1       -0.4371
     27 O          24.3189   73.8679   -0.0155 O.2     1  UNL1       -0.5170
     28 O          23.6255   71.3635   -0.3526 O.3     1  UNL1       -0.2858
     29 O          24.8065   71.6761    1.6763 O.3     1  UNL1       -0.3226
     30 O          20.8964   72.2432    2.8837 O.3     1  UNL1       -0.3794
     31 O          21.5767   70.0892    1.0311 O.3     1  UNL1       -0.3775
     32 O          22.6670   74.5250    2.5529 O.3     1  UNL1       -0.3792
     33 C          21.9995   72.2824    1.9783 C.3     1  UNL1        0.1718
     34 C          22.5266   70.8652    1.7522 C.3     1  UNL1        0.1968
     35 C          23.0878   73.1628    2.5966 C.3     1  UNL1        0.1723
     36 C          23.8434   70.8889    0.9748 C.3     1  UNL1        0.2706
     37 C          24.4056   73.0349    1.8380 C.3     1  UNL1        0.1830
     38 H          20.1922   71.6891    2.5118 H       1  UNL1        0.2105
     39 H          20.7386   70.0702    1.5186 H       1  UNL1        0.2106
     40 H          21.8290   74.6201    3.0321 H       1  UNL1        0.2106
     41 O          26.4405   72.6729    2.9470 O.co2   1  UNL1       -0.5466
     42 O          25.6255   74.8024    2.9376 O.co2   1  UNL1       -0.5466
     43 C          25.5302   73.6251    2.6250 C.2     1  UNL1        0.0799
@<TRIPOS>UNITY_ATOM_ATTR
2 1
charge -1
26 1
charge -1
41 1
charge -1
@<TRIPOS>BOND
     1     1     4    1
     2     1    24    1
     3     1     2    1
     4     1     3    2
     5    25    28    1
     6    25    24    1
     7    25    26    1
     8    25    27    2
     9     6    11    1
    10     6    12    1
    11    29    36    1
    12    29    37    1
    13     7     9    1
    14     7    13    1
    15     8    10    1
    16     8    14    1
    17     4     5    1
    18    28    36    1
    19    30    33    1
    20    30    38    1
    21    31    34    1
    22    31    39    1
    23    32    35    1
    24    32    40    1
    25    41    43   ar
    26    15    19    2
    27    42    43   ar
    28    16    22    2
    29    17    12    1
    30    17    19   ar
    31    17    20   ar
    32    18    19   ar
    33    18    22   ar
    34    18    23    1
    35     9    10    1
    36     9    11    1
    37    10    12    1
    38    11     5    1
    39    33    34    1
    40    33    35    1
    41    34    36    1
    42    35    37    1
    43    37    43    1
    44    20    21   ar
    45    21    22   ar
@<TRIPOS>MOLECULE
*****
 43 45 0 0 0
SMALL
GASTEIGER

@<TRIPOS>ATOM
      1 P          20.5327   71.2760   -1.4319 P.3     1  UNL1        0.2189
      2 O          21.1238   70.5503   -0.1117 O.co2   1  UNL1       -0.4371
      3 O          19.9698   72.6480   -1.2023 O.2     1  UNL1       -0.5170
      4 O          19.5041   70.1882   -2.0456 O.3     1  UNL1       -0.3112
      5 C          19.1793   70.2658   -3.4214 C.3     1  UNL1        0.1811
      6 O          17.5374   71.3445   -4.8064 O.3     1  UNL1       -0.3308
      7 O          15.4857   69.8144   -3.2442 O.3     1  UNL1       -0.3794
      8 O          15.6833   68.3665   -5.5466 O.3     1  UNL1       -0.3779
      9 C          16.7935   69.4136   -3.6536 C.3     1  UNL1        0.1713
     10 C          16.8094   69.1143   -5.1377 C.3     1  UNL1        0.1895
     11 C          17.7068   70.6286   -3.5638 C.3     1  UNL1        0.1764
     12 C          16.8357   70.5086   -5.7403 C.3     1  UNL1        0.2383
     13 H          14.8842   69.0545   -3.2932 H       1  UNL1        0.2105
     14 H          15.7128   67.4874   -5.1365 H       1  UNL1        0.2106
     15 O          15.5391   70.5846   -8.2482 O.2     1  UNL1       -0.2464
     16 O          19.5471   70.6528  -10.5231 O.2     1  UNL1       -0.2670
     17 N          17.5161   70.5467   -7.0038 N.ar    1  UNL1       -0.2551
     18 N          17.5365   70.6174   -9.3789 N.ar    1  UNL1       -0.2743
     19 C          16.7708   70.5830   -8.2061 C.ar    1  UNL1        0.3323
     20 C          18.9051   70.5497   -7.0438 C.ar    1  UNL1        0.0869
     21 C          19.6210   70.5829   -8.1695 C.ar    1  UNL1        0.0795
     22 C          18.9191   70.6212   -9.4692 C.ar    1  UNL1        0.2626
     23 H          17.0398   70.6410  -10.2286 H       1  UNL1        0.1734
     24 O          21.7763   71.2224   -2.4630 O.3     1  UNL1       -0.2703
     25 P          22.9964   72.2541   -2.7091 P.3     1  UNL1        0.2208
     26 O          24.1108   71.3401   -3.4460 O.co2   1  UNL1       -0.4371
     27 O          23.4831   72.9401   -1.4655 O.2     1  UNL1       -0.5170
     28 O          22.4630   73.2520   -3.8590 O.3     1  UNL1       -0.2858
     29 O          20.2271   73.5571   -4.5778 O.3     1  UNL1       -0.3226
     30 O          22.3451   74.4882   -8.0006 O.3     1  UNL1       -0.3794
     31 O          23.1262   72.2078   -6.3501 O.3     1  UNL1       -0.3775
     32 O          21.1635   76.6040   -6.3950 O.3     1  UNL1       -0.3792
     33 C          22.1144   74.3993   -6.5946 C.3     1  UNL1        0.1718
     34 C          21.9129   72.9358   -6.2006 C.3     1  UNL1        0.1968
     35 C          20.8619   75.2157   -6.2683 C.3     1  UNL1        0.1723
     36 C          21.4378   72.8198   -4.7516 C.3     1  UNL1        0.2706
     37 C          20.3783   74.9494   -4.8457 C.3     1  UNL1        0.1830
     38 H          23.1365   73.9767   -8.2316 H       1  UNL1        0.2105
     39 H          23.4336   72.2773   -7.2672 H       1  UNL1        0.2106
     40 H          21.4727   76.7868   -7.2960 H       1  UNL1        0.2106
     41 O          18.1614   74.4992   -4.2258 O.co2   1  UNL1       -0.5466
     42 O          18.6572   76.6403   -4.8334 O.co2   1  UNL1       -0.5466
     43 C          18.9963   75.4813   -4.6469 C.2     1  UNL1        0.0799
@<TRIPOS>UNITY_ATOM_ATTR
2 1
charge -1
26 1
charge -1
41 1
charge -1
@<TRIPOS>BOND
     1     1     4    1
     2     1    24    1
     3     1     2    1
     4     1     3    2
     5    25    28    1
     6    25    24    1
     7    25    26    1
     8    25    27    2
     9     6    11    1
    10     6    12    1
    11    29    36    1
    12    29    37    1
    13     7     9    1
    14     7    13    1
    15     8    10    1
    16     8    14    1
    17     4     5    1
    18    28    36    1
    19    30    33    1
    20    30    38    1
    21    31    34    1
    22    31    39    1
    23    32    35    1
    24    32    40    1
    25    41    43   ar
    26    15    19    2
    27    42    43   ar
    28    16    22    2
    29    17    12    1
    30    17    19   ar
    31    17    20   ar
    32    18    19   ar
    33    18    22   ar
    34    18    23    1
    35     9    10    1
    36     9    11    1
    37    10    12    1
    38    11     5    1
    39    33    34    1
    40    33    35    1
    41    34    36    1
    42    35    37    1
    43    37    43    1
    44    20    21   ar
    45    21    22   ar
@<TRIPOS>MOLECULE
*****
 43 45 0 0 0
SMALL
GASTEIGER

@<TRIPOS>ATOM
      1 P          21.0469   71.4894   -0.2368 P.3     1  UNL1        0.2189
      2 O          21.3585   70.2932    0.8077 O.co2   1  UNL1       -0.4371
      3 O          20.0173   72.4796    0.2228 O.2     1  UNL1       -0.5170
      4 O          20.7132   70.7199   -1.6204 O.3     1  UNL1       -0.3112
      5 C          20.4065   71.4923   -2.7667 C.3     1  UNL1        0.1811
      6 O          20.9556   70.4712   -4.8723 O.3     1  UNL1       -0.3308
      7 O          23.2697   72.3750   -4.9804 O.3     1  UNL1       -0.3794
      8 O          21.4541   73.5491   -6.6420 O.3     1  UNL1       -0.3779
      9 C          21.9532   72.5812   -4.4680 C.3     1  UNL1        0.1713
     10 C          20.9644   72.7241   -5.6056 C.3     1  UNL1        0.1895
     11 C          21.4969   71.2861   -3.8101 C.3     1  UNL1        0.1764
     12 C          20.7783   71.2818   -6.0448 C.3     1  UNL1        0.2383
     13 H          23.5828   73.1891   -5.4057 H       1  UNL1        0.2105
     14 H          21.5550   74.4565   -6.3126 H       1  UNL1        0.2106
     15 O          20.2807   69.8202   -8.4097 O.2     1  UNL1       -0.2464
     16 O          15.7251   70.4108   -8.0333 O.2     1  UNL1       -0.2670
     17 N          19.4718   71.0384   -6.5876 N.ar    1  UNL1       -0.2551
     18 N          18.0123   70.1166   -8.2205 N.ar    1  UNL1       -0.2743
     19 C          19.3312   70.2922   -7.7815 C.ar    1  UNL1        0.3323
     20 C          18.3477   71.5346   -5.9386 C.ar    1  UNL1        0.0869
     21 C          17.0969   71.3590   -6.3692 C.ar    1  UNL1        0.0795
     22 C          16.8628   70.5913   -7.6098 C.ar    1  UNL1        0.2626
     23 H          17.8893   69.6021   -9.0508 H       1  UNL1        0.1734
     24 O          22.5096   72.1188   -0.5147 O.3     1  UNL1       -0.2703
     25 P          23.6790   72.5765    0.5034 P.3     1  UNL1        0.2208
     26 O          24.2896   73.8979   -0.2047 O.co2   1  UNL1       -0.4371
     27 O          24.6922   71.5084    0.7977 O.2     1  UNL1       -0.5170
     28 O          22.8978   73.1338    1.8002 O.3     1  UNL1       -0.2858
     29 O          24.1567   72.9958    3.8015 O.3     1  UNL1       -0.3226
     30 O          20.4375   74.0986    5.2223 O.3     1  UNL1       -0.3794
     31 O          20.6819   72.0884    3.1167 O.3     1  UNL1       -0.3775
     32 O          22.5820   76.0556    5.0742 O.3     1  UNL1       -0.3792
     33 C          21.5110   74.0478    4.2826 C.3     1  UNL1        0.1718
     34 C          21.7703   72.5959    3.8799 C.3     1  UNL1        0.1968
     35 C          22.7521   74.6449    4.9497 C.3     1  UNL1        0.1723
     36 C          23.0538   72.4773    3.0570 C.3     1  UNL1        0.2706
     37 C          24.0098   74.3758    4.1287 C.3     1  UNL1        0.1830
     38 H          19.6377   73.7243    4.8204 H       1  UNL1        0.2105
     39 H          19.8641   72.1608    3.6328 H       1  UNL1        0.2106
     40 H          21.7847   76.2406    5.5946 H       1  UNL1        0.2106
     41 O          24.9322   74.7930    6.2445 O.co2   1  UNL1       -0.5466
     42 O          26.3659   74.7662    4.4717 O.co2   1  UNL1       -0.5466
     43 C          25.2378   74.6632    4.9297 C.2     1  UNL1        0.0799
@<TRIPOS>UNITY_ATOM_ATTR
2 1
charge -1
26 1
charge -1
41 1
charge -1
@<TRIPOS>BOND
     1     1     4    1
     2     1    24    1
     3     1     2    1
     4     1     3    2
     5    25    28    1
     6    25    24    1
     7    25    26    1
     8    25    27    2
     9     6    11    1
    10     6    12    1
    11    29    36    1
    12    29    37    1
    13     7     9    1
    14     7    13    1
    15     8    10    1
    16     8    14    1
    17     4     5    1
    18    28    36    1
    19    30    33    1
    20    30    38    1
    21    31    34    1
    22    31    39    1
    23    32    35    1
    24    32    40    1
    25    41    43   ar
    26    15    19    2
    27    42    43   ar
    28    16    22    2
    29    17    12    1
    30    17    19   ar
    31    17    20   ar
    32    18    19   ar
    33    18    22   ar
    34    18    23    1
    35     9    10    1
    36     9    11    1
    37    10    12    1
    38    11     5    1
    39    33    34    1
    40    33    35    1
    41    34    36    1
    42    35    37    1
    43    37    43    1
    44    20    21   ar
    45    21    22   ar
@<TRIPOS>MOLECULE
*****
 43 45 0 0 0
SMALL
GASTEIGER

@<TRIPOS>ATOM
      1 P          21.7993   72.4132   -5.4605 P.3     1  UNL1        0.2189
      2 O          21.1492   73.8431   -5.0712 O.co2   1  UNL1       -0.4371
      3 O          23.0570   72.4898   -6.2754 O.2     1  UNL1       -0.5170
      4 O          20.5738   71.5998   -6.1346 O.3     1  UNL1       -0.3112
      5 C          20.1472   71.9730   -7.4320 C.3     1  UNL1        0.1811
      6 O          18.9067   69.9456   -7.0730 O.3     1  UNL1       -0.3308
      7 O          18.1752   70.0987   -9.9769 O.3     1  UNL1       -0.3794
      8 O          15.9332   71.0457   -8.7469 O.3     1  UNL1       -0.3779
      9 C          18.3456   71.1546   -9.0311 C.3     1  UNL1        0.1713
     10 C          17.1684   71.2015   -8.0802 C.3     1  UNL1        0.1895
     11 C          19.4903   70.7732   -8.1025 C.3     1  UNL1        0.1764
     12 C          17.4756   70.0477   -7.1409 C.3     1  UNL1        0.2383
     13 H          17.4489   70.3197  -10.5813 H       1  UNL1        0.2105
     14 H          15.7837   71.8053   -9.3322 H       1  UNL1        0.2106
     15 O          16.2957   68.0424   -5.5398 O.2     1  UNL1       -0.2464
     16 O          15.5308   70.9953   -2.0845 O.2     1  UNL1       -0.2670
     17 N          16.9597   70.2650   -5.8189 N.ar    1  UNL1       -0.2551
     18 N          15.9149   69.5153   -3.8208 N.ar    1  UNL1       -0.2743
     19 C          16.3866   69.1899   -5.0993 C.ar    1  UNL1        0.3323
     20 C          17.0256   71.5301   -5.2480 C.ar    1  UNL1        0.0869
     21 C          16.5718   71.8249   -4.0282 C.ar    1  UNL1        0.0795
     22 C          15.9577   70.7584   -3.2105 C.ar    1  UNL1        0.2626
     23 H          15.5098   68.7835   -3.3014 H       1  UNL1        0.1734
     24 O          21.9700   71.6893   -4.0252 O.3     1  UNL1       -0.2703
     25 P          23.1486   71.7832   -2.9226 P.3     1  UNL1        0.2208
     26 O          23.6968   73.2964   -3.0952 O.co2   1  UNL1       -0.4371
     27 O          24.2039   70.7239   -3.0576 O.2     1  UNL1       -0.5170
     28 O          22.3818   71.7873   -1.5033 O.3     1  UNL1       -0.2858
     29 O          23.7968   72.9611   -0.0103 O.3     1  UNL1       -0.3226
     30 O          20.5223   72.1704    2.3814 O.3     1  UNL1       -0.3794
     31 O          21.5626   70.1264    0.5719 O.3     1  UNL1       -0.3775
     32 O          20.9389   74.8424    1.3146 O.3     1  UNL1       -0.3792
     33 C          21.2068   72.4529    1.1609 C.3     1  UNL1        0.1718
     34 C          22.2249   71.3481    0.8776 C.3     1  UNL1        0.1968
     35 C          21.9138   73.8012    1.3163 C.3     1  UNL1        0.1723
     36 C          23.1335   71.7283   -0.2924 C.3     1  UNL1        0.2706
     37 C          22.8954   74.0503    0.1748 C.3     1  UNL1        0.1830
     38 H          20.0654   71.3178    2.3063 H       1  UNL1        0.2105
     39 H          20.9841   69.8793    1.3099 H       1  UNL1        0.2106
     40 H          20.3078   74.6956    2.0364 H       1  UNL1        0.2106
     41 O          25.0505   74.7370    0.7958 O.co2   1  UNL1       -0.5466
     42 O          23.4855   76.3678    0.4949 O.co2   1  UNL1       -0.5466
     43 C          23.8071   75.1890    0.4982 C.2     1  UNL1        0.0799
@<TRIPOS>UNITY_ATOM_ATTR
2 1
charge -1
26 1
charge -1
41 1
charge -1
@<TRIPOS>BOND
     1     1     4    1
     2     1    24    1
     3     1     2    1
     4     1     3    2
     5    25    28    1
     6    25    24    1
     7    25    26    1
     8    25    27    2
     9     6    11    1
    10     6    12    1
    11    29    36    1
    12    29    37    1
    13     7     9    1
    14     7    13    1
    15     8    10    1
    16     8    14    1
    17     4     5    1
    18    28    36    1
    19    30    33    1
    20    30    38    1
    21    31    34    1
    22    31    39    1
    23    32    35    1
    24    32    40    1
    25    41    43   ar
    26    15    19    2
    27    42    43   ar
    28    16    22    2
    29    17    12    1
    30    17    19   ar
    31    17    20   ar
    32    18    19   ar
    33    18    22   ar
    34    18    23    1
    35     9    10    1
    36     9    11    1
    37    10    12    1
    38    11     5    1
    39    33    34    1
    40    33    35    1
    41    34    36    1
    42    35    37    1
    43    37    43    1
    44    20    21   ar
    45    21    22   ar
@<TRIPOS>MOLECULE
*****
 43 45 0 0 0
SMALL
GASTEIGER

@<TRIPOS>ATOM
      1 P          23.1439   73.6945   -4.1202 P.3     1  UNL1        0.2189
      2 O          24.2810   72.5443   -4.1733 O.co2   1  UNL1       -0.4371
      3 O          23.5592   75.0224   -4.6824 O.2     1  UNL1       -0.5170
      4 O          22.6722   73.7033   -2.5725 O.3     1  UNL1       -0.3112
      5 C          21.8308   74.7517   -2.1280 C.3     1  UNL1        0.1811
      6 O          21.0268   72.8656   -0.8736 O.3     1  UNL1       -0.3308
      7 O          18.8207   74.6666    0.0652 O.3     1  UNL1       -0.3794
      8 O          20.5299   74.6606    2.1900 O.3     1  UNL1       -0.3779
      9 C          20.1898   74.9756   -0.1969 C.3     1  UNL1        0.1713
     10 C          21.0710   74.4289    0.9062 C.3     1  UNL1        0.1895
     11 C          20.6355   74.1529   -1.3980 C.3     1  UNL1        0.1764
     12 C          21.1346   72.9520    0.5562 C.3     1  UNL1        0.2383
     13 H          18.5133   75.1804    0.8288 H       1  UNL1        0.2105
     14 H          20.5109   75.6149    2.3654 H       1  UNL1        0.2106
     15 O          21.4943   70.1769    0.9382 O.2     1  UNL1       -0.2464
     16 O          25.9091   70.7297    2.1416 O.2     1  UNL1       -0.2670
     17 N          22.3676   72.3437    0.9691 N.ar    1  UNL1       -0.2551
     18 N          23.6925   70.4550    1.5382 N.ar    1  UNL1       -0.2743
     19 C          22.4424   70.9401    1.1319 C.ar    1  UNL1        0.3323
     20 C          23.4857   73.1340    1.2063 C.ar    1  UNL1        0.0869
     21 C          24.6705   72.6571    1.5930 C.ar    1  UNL1        0.0795
     22 C          24.8330   71.2013    1.7870 C.ar    1  UNL1        0.2626
     23 H          23.7685   69.4810    1.6602 H       1  UNL1        0.1734
     24 O          21.8936   73.0041   -4.8772 O.3     1  UNL1       -0.2703
     25 P          20.6620   73.6517   -5.7002 P.3     1  UNL1        0.2208
     26 O          21.1921   73.6392   -7.2297 O.co2   1  UNL1       -0.4371
     27 O          20.2334   75.0027   -5.2053 O.2     1  UNL1       -0.5170
     28 O          19.5066   72.5266   -5.6605 O.3     1  UNL1       -0.2858
     29 O          19.6160   70.2945   -4.8762 O.3     1  UNL1       -0.3226
     30 O          16.7997   69.9918   -7.8837 O.3     1  UNL1       -0.3794
     31 O          19.2076   71.6011   -8.2663 O.3     1  UNL1       -0.3775
     32 O          15.9677   69.9740   -5.0983 O.3     1  UNL1       -0.3792
     33 C          17.5128   70.6324   -6.8258 C.3     1  UNL1        0.1718
     34 C          18.9981   70.7055   -7.1807 C.3     1  UNL1        0.1968
     35 C          17.3098   69.8087   -5.5521 C.3     1  UNL1        0.1723
     36 C          19.8246   71.1737   -5.9821 C.3     1  UNL1        0.2706
     37 C          18.2581   70.2550   -4.4430 C.3     1  UNL1        0.1830
     38 H          16.9142   70.4976   -8.7037 H       1  UNL1        0.2105
     39 H          18.6860   71.3102   -9.0303 H       1  UNL1        0.2106
     40 H          15.3539   69.6936   -5.7951 H       1  UNL1        0.2106
     41 O          18.8442   69.7878   -2.2205 O.co2   1  UNL1       -0.5466
     42 O          17.8698   68.1073   -3.4145 O.co2   1  UNL1       -0.5466
     43 C          18.2883   69.2526   -3.3356 C.2     1  UNL1        0.0799
@<TRIPOS>UNITY_ATOM_ATTR
2 1
charge -1
26 1
charge -1
41 1
charge -1
@<TRIPOS>BOND
     1     1     4    1
     2     1    24    1
     3     1     2    1
     4     1     3    2
     5    25    28    1
     6    25    24    1
     7    25    26    1
     8    25    27    2
     9     6    11    1
    10     6    12    1
    11    29    36    1
    12    29    37    1
    13     7     9    1
    14     7    13    1
    15     8    10    1
    16     8    14    1
    17     4     5    1
    18    28    36    1
    19    30    33    1
    20    30    38    1
    21    31    34    1
    22    31    39    1
    23    32    35    1
    24    32    40    1
    25    41    43   ar
    26    15    19    2
    27    42    43   ar
    28    16    22    2
    29    17    12    1
    30    17    19   ar
    31    17    20   ar
    32    18    19   ar
    33    18    22   ar
    34    18    23    1
    35     9    10    1
    36     9    11    1
    37    10    12    1
    38    11     5    1
    39    33    34    1
    40    33    35    1
    41    34    36    1
    42    35    37    1
    43    37    43    1
    44    20    21   ar
    45    21    22   ar
@<TRIPOS>MOLECULE
*****
 43 45 0 0 0
SMALL
GASTEIGER

@<TRIPOS>ATOM
      1 P          20.5414   73.0524   -5.2002 P.3     1  UNL1        0.2189
      2 O          19.8445   72.4576   -3.8663 O.co2   1  UNL1       -0.4371
      3 O          19.9905   74.3665   -5.6707 O.2     1  UNL1       -0.5170
      4 O          20.4539   71.8336   -6.2607 O.3     1  UNL1       -0.3112
      5 C          19.9323   72.0959   -7.5505 C.3     1  UNL1        0.1811
      6 O          18.7978   70.0436   -7.0225 O.3     1  UNL1       -0.3308
      7 O          18.0739   69.9129   -9.9295 O.3     1  UNL1       -0.3794
      8 O          15.7793   70.8410   -8.7851 O.3     1  UNL1       -0.3779
      9 C          18.1841   71.0522   -9.0760 C.3     1  UNL1        0.1713
     10 C          17.0013   71.1171   -8.1331 C.3     1  UNL1        0.1895
     11 C          19.3425   70.8111   -8.1178 C.3     1  UNL1        0.1764
     12 C          17.3636   70.0642   -7.0997 C.3     1  UNL1        0.2383
     13 H          17.3401   70.0437  -10.5508 H       1  UNL1        0.2105
     14 H          15.5932   71.5397   -9.4325 H       1  UNL1        0.2106
     15 O          16.4415   68.1239   -5.2663 O.2     1  UNL1       -0.2464
     16 O          15.3383   71.3318   -2.1460 O.2     1  UNL1       -0.2670
     17 N          16.8304   70.3647   -5.8011 N.ar    1  UNL1       -0.2551
     18 N          15.8920   69.7235   -3.7144 N.ar    1  UNL1       -0.2743
     19 C          16.3946   69.3160   -4.9571 C.ar    1  UNL1        0.3323
     20 C          16.7449   71.6845   -5.3748 C.ar    1  UNL1        0.0869
     21 C          16.2636   72.0574   -4.1874 C.ar    1  UNL1        0.0795
     22 C          15.7863   71.0232   -3.2461 C.ar    1  UNL1        0.2626
     23 H          15.5805   69.0113   -3.1102 H       1  UNL1        0.1734
     24 O          22.1094   73.0813   -4.8083 O.3     1  UNL1       -0.2703
     25 P          22.9893   74.1936   -4.0324 P.3     1  UNL1        0.2208
     26 O          21.9368   75.4013   -3.7996 O.co2   1  UNL1       -0.4371
     27 O          24.2443   74.5970   -4.7507 O.2     1  UNL1       -0.5170
     28 O          23.2290   73.5735   -2.5625 O.3     1  UNL1       -0.2858
     29 O          21.6419   72.8331   -0.9682 O.3     1  UNL1       -0.3226
     30 O          24.7006   74.1868    1.4566 O.3     1  UNL1       -0.3794
     31 O          23.9030   75.7054   -0.9082 O.3     1  UNL1       -0.3775
     32 O          24.2990   71.3337    1.0699 O.3     1  UNL1       -0.3792
     33 C          24.1253   73.6055    0.2865 C.3     1  UNL1        0.1718
     34 C          23.1751   74.6082   -0.3688 C.3     1  UNL1        0.1968
     35 C          23.3630   72.3477    0.7092 C.3     1  UNL1        0.1723
     36 C          22.3689   73.9471   -1.4876 C.3     1  UNL1        0.2706
     37 C          22.4856   71.8212   -0.4229 C.3     1  UNL1        0.1830
     38 H          25.1902   74.9880    1.2126 H       1  UNL1        0.2105
     39 H          24.4171   76.1294   -0.2037 H       1  UNL1        0.2106
     40 H          24.8637   71.6562    1.7896 H       1  UNL1        0.2106
     41 O          20.4686   70.6754   -0.7695 O.co2   1  UNL1       -0.5466
     42 O          21.6296   70.1859    1.1309 O.co2   1  UNL1       -0.5466
     43 C          21.5108   70.8106    0.0876 C.2     1  UNL1        0.0799
@<TRIPOS>UNITY_ATOM_ATTR
2 1
charge -1
26 1
charge -1
41 1
charge -1
@<TRIPOS>BOND
     1     1     4    1
     2     1    24    1
     3     1     2    1
     4     1     3    2
     5    25    28    1
     6    25    24    1
     7    25    26    1
     8    25    27    2
     9     6    11    1
    10     6    12    1
    11    29    36    1
    12    29    37    1
    13     7     9    1
    14     7    13    1
    15     8    10    1
    16     8    14    1
    17     4     5    1
    18    28    36    1
    19    30    33    1
    20    30    38    1
    21    31    34    1
    22    31    39    1
    23    32    35    1
    24    32    40    1
    25    41    43   ar
    26    15    19    2
    27    42    43   ar
    28    16    22    2
    29    17    12    1
    30    17    19   ar
    31    17    20   ar
    32    18    19   ar
    33    18    22   ar
    34    18    23    1
    35     9    10    1
    36     9    11    1
    37    10    12    1
    38    11     5    1
    39    33    34    1
    40    33    35    1
    41    34    36    1
    42    35    37    1
    43    37    43    1
    44    20    21   ar
    45    21    22   ar
@<TRIPOS>MOLECULE
*****
 43 45 0 0 0
SMALL
GASTEIGER

@<TRIPOS>ATOM
      1 P          23.1010   73.4641   -4.4159 P.3     1  UNL1        0.2189
      2 O          23.3373   74.6734   -5.4650 O.co2   1  UNL1       -0.4371
      3 O          24.3292   72.6723   -4.0748 O.2     1  UNL1       -0.5170
      4 O          21.8795   72.6224   -5.0620 O.3     1  UNL1       -0.3112
      5 C          20.5584   73.0955   -4.8736 C.3     1  UNL1        0.1811
      6 O          19.4506   72.5489   -6.9356 O.3     1  UNL1       -0.3308
      7 O          18.8905   75.4831   -7.1964 O.3     1  UNL1       -0.3794
      8 O          16.5133   74.5009   -6.2907 O.3     1  UNL1       -0.3779
      9 C          18.9241   74.6704   -6.0230 C.3     1  UNL1        0.1713
     10 C          17.6902   73.7956   -5.9558 C.3     1  UNL1        0.1895
     11 C          20.0342   73.6427   -6.1950 C.3     1  UNL1        0.1764
     12 C          18.0227   72.7037   -6.9582 C.3     1  UNL1        0.2383
     13 H          18.1886   76.1476   -7.1099 H       1  UNL1        0.2105
     14 H          16.3448   75.1843   -5.6224 H       1  UNL1        0.2106
     15 O          15.7236   71.6618   -8.2251 O.2     1  UNL1       -0.2464
     16 O          15.7653   67.8777   -5.5940 O.2     1  UNL1       -0.2670
     17 N          17.4116   71.4484   -6.6240 N.ar    1  UNL1       -0.2551
     18 N          15.7459   69.7786   -6.9127 N.ar    1  UNL1       -0.2743
     19 C          16.2586   71.0168   -7.3214 C.ar    1  UNL1        0.3323
     20 C          17.9545   70.6589   -5.6176 C.ar    1  UNL1        0.0869
     21 C          17.4547   69.4808   -5.2393 C.ar    1  UNL1        0.0795
     22 C          16.2503   68.9578   -5.9170 C.ar    1  UNL1        0.2626
     23 H          14.9421   69.4581   -7.3823 H       1  UNL1        0.1734
     24 O          22.4067   74.2051   -3.1583 O.3     1  UNL1       -0.2703
     25 P          22.4322   73.8630   -1.5784 P.3     1  UNL1        0.2208
     26 O          23.2940   75.0808   -0.9502 O.co2   1  UNL1       -0.4371
     27 O          22.9633   72.4971   -1.2526 O.2     1  UNL1       -0.5170
     28 O          20.9226   74.1315   -1.0771 O.3     1  UNL1       -0.2858
     29 O          20.9568   72.7214    0.8254 O.3     1  UNL1       -0.3226
     30 O          23.4214   75.8122    2.0255 O.3     1  UNL1       -0.3794
     31 O          20.9473   76.3688    0.5751 O.3     1  UNL1       -0.3775
     32 O          24.5633   73.2587    1.2337 O.3     1  UNL1       -0.3792
     33 C          22.8172   74.9132    1.0956 C.3     1  UNL1        0.1718
     34 C          21.2999   75.1003    1.1149 C.3     1  UNL1        0.1968
     35 C          23.1829   73.4865    1.5113 C.3     1  UNL1        0.1723
     36 C          20.6032   74.0043    0.3073 C.3     1  UNL1        0.2706
     37 C          22.3555   72.4550    0.7497 C.3     1  UNL1        0.1830
     38 H          23.2027   76.7254    1.7814 H       1  UNL1        0.2105
     39 H          21.3862   77.0690    1.0826 H       1  UNL1        0.2106
     40 H          25.1009   73.9089    1.7123 H       1  UNL1        0.2106
     41 O          21.4744   70.2920    0.9662 O.co2   1  UNL1       -0.5466
     42 O          23.3516   70.7754    2.1668 O.co2   1  UNL1       -0.5466
     43 C          22.4750   71.1070    1.3828 C.2     1  UNL1        0.0799
@<TRIPOS>UNITY_ATOM_ATTR
2 1
charge -1
26 1
charge -1
41 1
charge -1
@<TRIPOS>BOND
     1     1     4    1
     2     1    24    1
     3     1     2    1
     4     1     3    2
     5    25    28    1
     6    25    24    1
     7    25    26    1
     8    25    27    2
     9     6    11    1
    10     6    12    1
    11    29    36    1
    12    29    37    1
    13     7     9    1
    14     7    13    1
    15     8    10    1
    16     8    14    1
    17     4     5    1
    18    28    36    1
    19    30    33    1
    20    30    38    1
    21    31    34    1
    22    31    39    1
    23    32    35    1
    24    32    40    1
    25    41    43   ar
    26    15    19    2
    27    42    43   ar
    28    16    22    2
    29    17    12    1
    30    17    19   ar
    31    17    20   ar
    32    18    19   ar
    33    18    22   ar
    34    18    23    1
    35     9    10    1
    36     9    11    1
    37    10    12    1
    38    11     5    1
    39    33    34    1
    40    33    35    1
    41    34    36    1
    42    35    37    1
    43    37    43    1
    44    20    21   ar
    45    21    22   ar
@<TRIPOS>MOLECULE
*****
 43 45 0 0 0
SMALL
GASTEIGER

@<TRIPOS>ATOM
      1 P          21.0323   71.5788   -0.0056 P.3     1  UNL1        0.2189
      2 O          21.3879   70.2830    0.8963 O.co2   1  UNL1       -0.4371
      3 O          20.0123   72.5045    0.5897 O.2     1  UNL1       -0.5170
      4 O          20.6567   70.9552   -1.4506 O.3     1  UNL1       -0.3112
      5 C          20.5304   71.8335   -2.5539 C.3     1  UNL1        0.1811
      6 O          21.0187   70.5791   -4.5453 O.3     1  UNL1       -0.3308
      7 O          23.3723   72.4041   -4.8941 O.3     1  UNL1       -0.3794
      8 O          21.5535   73.4361   -6.6442 O.3     1  UNL1       -0.3779
      9 C          22.0700   72.6958   -4.3865 C.3     1  UNL1        0.1713
     10 C          21.0643   72.7393   -5.5174 C.3     1  UNL1        0.1895
     11 C          21.5971   71.4902   -3.5858 C.3     1  UNL1        0.1764
     12 C          20.8384   71.2630   -5.7956 C.3     1  UNL1        0.2383
     13 H          23.6956   73.1601   -5.4095 H       1  UNL1        0.2105
     14 H          21.6805   74.3709   -6.4162 H       1  UNL1        0.2106
     15 O          18.8810   69.7899   -4.3903 O.2     1  UNL1       -0.2464
     16 O          15.8033   70.2934   -7.7841 O.2     1  UNL1       -0.2670
     17 N          19.5173   70.9941   -6.2886 N.ar    1  UNL1       -0.2551
     18 N          17.3503   70.0412   -6.0824 N.ar    1  UNL1       -0.2743
     19 C          18.6100   70.2439   -5.5036 C.ar    1  UNL1        0.3323
     20 C          19.1313   71.4725   -7.5348 C.ar    1  UNL1        0.0869
     21 C          17.9270   71.2712   -8.0732 C.ar    1  UNL1        0.0795
     22 C          16.9204   70.4963   -7.3184 C.ar    1  UNL1        0.2626
     23 H          16.7023   69.5199   -5.5555 H       1  UNL1        0.1734
     24 O          22.4803   72.2491   -0.2644 O.3     1  UNL1       -0.2703
     25 P          23.7704   72.3939    0.6990 P.3     1  UNL1        0.2208
     26 O          24.5090   73.7179    0.1317 O.co2   1  UNL1       -0.4371
     27 O          24.6422   71.1726    0.7484 O.2     1  UNL1       -0.5170
     28 O          23.1672   72.8440    2.1259 O.3     1  UNL1       -0.2858
     29 O          21.6654   74.5550    2.7787 O.3     1  UNL1       -0.3226
     30 O          24.3346   74.5312    5.9319 O.3     1  UNL1       -0.3794
     31 O          25.2902   74.2985    3.1810 O.3     1  UNL1       -0.3775
     32 O          21.6985   73.3458    6.2426 O.3     1  UNL1       -0.3792
     33 C          23.5744   73.9663    4.8638 C.3     1  UNL1        0.1718
     34 C          23.9593   74.6430    3.5479 C.3     1  UNL1        0.1968
     35 C          22.0917   74.1949    5.1661 C.3     1  UNL1        0.1723
     36 C          23.0097   74.2304    2.4224 C.3     1  UNL1        0.2706
     37 C          21.2209   73.8800    3.9533 C.3     1  UNL1        0.1830
     38 H          25.2804   74.3980    5.7615 H       1  UNL1        0.2105
     39 H          25.8981   74.5573    3.8909 H       1  UNL1        0.2106
     40 H          22.2454   73.5360    7.0208 H       1  UNL1        0.2106
     41 O          19.7921   75.2687    5.1910 O.co2   1  UNL1       -0.5466
     42 O          18.8735   74.1193    3.4492 O.co2   1  UNL1       -0.5466
     43 C          19.8370   74.4108    4.1418 C.2     1  UNL1        0.0799
@<TRIPOS>UNITY_ATOM_ATTR
2 1
charge -1
26 1
charge -1
41 1
charge -1
@<TRIPOS>BOND
     1     1     4    1
     2     1    24    1
     3     1     2    1
     4     1     3    2
     5    25    28    1
     6    25    24    1
     7    25    26    1
     8    25    27    2
     9     6    11    1
    10     6    12    1
    11    29    36    1
    12    29    37    1
    13     7     9    1
    14     7    13    1
    15     8    10    1
    16     8    14    1
    17     4     5    1
    18    28    36    1
    19    30    33    1
    20    30    38    1
    21    31    34    1
    22    31    39    1
    23    32    35    1
    24    32    40    1
    25    41    43   ar
    26    15    19    2
    27    42    43   ar
    28    16    22    2
    29    17    12    1
    30    17    19   ar
    31    17    20   ar
    32    18    19   ar
    33    18    22   ar
    34    18    23    1
    35     9    10    1
    36     9    11    1
    37    10    12    1
    38    11     5    1
    39    33    34    1
    40    33    35    1
    41    34    36    1
    42    35    37    1
    43    37    43    1
    44    20    21   ar
    45    21    22   ar
@<TRIPOS>MOLECULE
*****
 43 45 0 0 0
SMALL
GASTEIGER

@<TRIPOS>ATOM
      1 P          21.8357   72.4452   -5.6877 P.3     1  UNL1        0.2189
      2 O          21.1595   73.8512   -5.2576 O.co2   1  UNL1       -0.4371
      3 O          23.0487   72.5670   -6.5626 O.2     1  UNL1       -0.5170
      4 O          20.6055   71.5957   -6.3065 O.3     1  UNL1       -0.3112
      5 C          20.1169   71.9486   -7.5876 C.3     1  UNL1        0.1811
      6 O          18.8862   69.9286   -7.1603 O.3     1  UNL1       -0.3308
      7 O          18.1146   70.0065  -10.0569 O.3     1  UNL1       -0.3794
      8 O          15.8875   70.9801   -8.8206 O.3     1  UNL1       -0.3779
      9 C          18.2956   71.0864   -9.1406 C.3     1  UNL1        0.1713
     10 C          17.1314   71.1552   -8.1750 C.3     1  UNL1        0.1895
     11 C          19.4538   70.7309   -8.2183 C.3     1  UNL1        0.1764
     12 C          17.4540   70.0261   -7.2111 C.3     1  UNL1        0.2383
     13 H          17.3796   70.2107  -10.6567 H       1  UNL1        0.2105
     14 H          15.7283   71.7243   -9.4229 H       1  UNL1        0.2106
     15 O          16.3176   68.0561   -5.5366 O.2     1  UNL1       -0.2464
     16 O          15.5755   71.0983   -2.1545 O.2     1  UNL1       -0.2670
     17 N          16.9558   70.2759   -5.8881 N.ar    1  UNL1       -0.2551
     18 N          15.9482   69.5734   -3.8541 N.ar    1  UNL1       -0.2743
     19 C          16.4040   69.2163   -5.1300 C.ar    1  UNL1        0.3323
     20 C          17.0178   71.5573   -5.3541 C.ar    1  UNL1        0.0869
     21 C          16.5794   71.8822   -4.1363 C.ar    1  UNL1        0.0795
     22 C          15.9879   70.8335   -3.2797 C.ar    1  UNL1        0.2626
     23 H          15.5580   68.8529   -3.3082 H       1  UNL1        0.1734
     24 O          22.0999   71.7202   -4.2674 O.3     1  UNL1       -0.2703
     25 P          23.2596   71.9404   -3.1627 P.3     1  UNL1        0.2208
     26 O          23.9215   73.3521   -3.5978 O.co2   1  UNL1       -0.4371
     27 O          24.2363   70.8049   -3.0605 O.2     1  UNL1       -0.5170
     28 O          22.4666   72.2665   -1.7962 O.3     1  UNL1       -0.2858
     29 O          23.0571   70.7009   -0.1201 O.3     1  UNL1       -0.3226
     30 O          20.1828   72.9550    1.8100 O.3     1  UNL1       -0.3794
     31 O          19.8119   72.1522   -0.9743 O.3     1  UNL1       -0.3775
     32 O          22.9960   73.3282    2.4403 O.3     1  UNL1       -0.3792
     33 C          21.2522   72.7131    0.8958 C.3     1  UNL1        0.1718
     34 C          20.8291   71.6481   -0.1163 C.3     1  UNL1        0.1968
     35 C          22.4621   72.2322    1.7000 C.3     1  UNL1        0.1723
     36 C          22.0184   71.1971   -0.9654 C.3     1  UNL1        0.2706
     37 C          23.5544   71.6817    0.7875 C.3     1  UNL1        0.1830
     38 H          19.4027   73.2617    1.3215 H       1  UNL1        0.2105
     39 H          19.0542   72.4405   -0.4421 H       1  UNL1        0.2106
     40 H          22.3107   73.6879    3.0250 H       1  UNL1        0.2106
     41 O          24.1265   70.6921    2.8357 O.co2   1  UNL1       -0.5466
     42 O          25.6576   70.5569    1.1515 O.co2   1  UNL1       -0.5466
     43 C          24.5722   70.9236    1.5760 C.2     1  UNL1        0.0799
@<TRIPOS>UNITY_ATOM_ATTR
2 1
charge -1
26 1
charge -1
41 1
charge -1
@<TRIPOS>BOND
     1     1     4    1
     2     1    24    1
     3     1     2    1
     4     1     3    2
     5    25    28    1
     6    25    24    1
     7    25    26    1
     8    25    27    2
     9     6    11    1
    10     6    12    1
    11    29    36    1
    12    29    37    1
    13     7     9    1
    14     7    13    1
    15     8    10    1
    16     8    14    1
    17     4     5    1
    18    28    36    1
    19    30    33    1
    20    30    38    1
    21    31    34    1
    22    31    39    1
    23    32    35    1
    24    32    40    1
    25    41    43   ar
    26    15    19    2
    27    42    43   ar
    28    16    22    2
    29    17    12    1
    30    17    19   ar
    31    17    20   ar
    32    18    19   ar
    33    18    22   ar
    34    18    23    1
    35     9    10    1
    36     9    11    1
    37    10    12    1
    38    11     5    1
    39    33    34    1
    40    33    35    1
    41    34    36    1
    42    35    37    1
    43    37    43    1
    44    20    21   ar
    45    21    22   ar
@<TRIPOS>MOLECULE
*****
 43 45 0 0 0
SMALL
GASTEIGER

@<TRIPOS>ATOM
      1 P          23.4389   72.2924   -3.5121 P.3     1  UNL1        0.2189
      2 O          24.0604   70.8293   -3.2089 O.co2   1  UNL1       -0.4371
      3 O          24.4311   73.3191   -3.9738 O.2     1  UNL1       -0.5170
      4 O          22.6275   72.6575   -2.1606 O.3     1  UNL1       -0.3112
      5 C          23.3500   72.7731   -0.9486 C.3     1  UNL1        0.1811
      6 O          24.4004   71.2705    0.6060 O.3     1  UNL1       -0.3308
      7 O          21.6493   70.2111    1.1542 O.3     1  UNL1       -0.3794
      8 O          22.0898   71.8559    3.2842 O.3     1  UNL1       -0.3779
      9 C          22.0631   71.5482    0.8724 C.3     1  UNL1        0.1713
     10 C          22.7611   72.1456    2.0759 C.3     1  UNL1        0.1895
     11 C          23.1892   71.4857   -0.1504 C.3     1  UNL1        0.1764
     12 C          24.1328   71.4971    1.9990 C.3     1  UNL1        0.2383
     13 H          20.9301   70.2254    1.8056 H       1  UNL1        0.2105
     14 H          21.2224   72.2912    3.2846 H       1  UNL1        0.2106
     15 O          26.8070   70.6777    2.3909 O.2     1  UNL1       -0.2464
     16 O          28.0093   74.7888    4.0931 O.2     1  UNL1       -0.2670
     17 N          25.1653   72.3331    2.5428 N.ar    1  UNL1       -0.2551
     18 N          27.4030   72.7257    3.2393 N.ar    1  UNL1       -0.2743
     19 C          26.4764   71.8244    2.6988 C.ar    1  UNL1        0.3323
     20 C          24.8757   73.6407    2.9135 C.ar    1  UNL1        0.0869
     21 C          25.7696   74.4880    3.4272 C.ar    1  UNL1        0.0795
     22 C          27.1622   74.0349    3.6235 C.ar    1  UNL1        0.2626
     23 H          28.3220   72.3936    3.3592 H       1  UNL1        0.1734
     24 O          22.2587   71.9733   -4.5695 O.3     1  UNL1       -0.2703
     25 P          21.5506   72.9068   -5.6835 P.3     1  UNL1        0.2208
     26 O          22.4435   72.6442   -7.0079 O.co2   1  UNL1       -0.4371
     27 O          21.4343   74.3517   -5.2925 O.2     1  UNL1       -0.5170
     28 O          20.1430   72.1811   -5.9909 O.3     1  UNL1       -0.2858
     29 O          19.4395   69.9972   -5.4038 O.3     1  UNL1       -0.3226
     30 O          17.3689   70.6299   -8.9223 O.3     1  UNL1       -0.3794
     31 O          20.1595   71.4586   -8.6768 O.3     1  UNL1       -0.3775
     32 O          15.9882   70.7843   -6.3687 O.3     1  UNL1       -0.3792
     33 C          17.9904   70.9996   -7.6915 C.3     1  UNL1        0.1718
     34 C          19.4749   70.6366   -7.7385 C.3     1  UNL1        0.1968
     35 C          17.2921   70.2392   -6.5619 C.3     1  UNL1        0.1723
     36 C          20.1229   70.8043   -6.3634 C.3     1  UNL1        0.2706
     37 C          18.0669   70.3521   -5.2521 C.3     1  UNL1        0.1830
     38 H          17.7964   71.1009   -9.6549 H       1  UNL1        0.2105
     39 H          19.7533   71.3574   -9.5515 H       1  UNL1        0.2106
     40 H          15.4846   70.7187   -7.1951 H       1  UNL1        0.2106
     41 O          18.6035   68.8271   -3.5528 O.co2   1  UNL1       -0.5466
     42 O          16.3986   69.0558   -4.0869 O.co2   1  UNL1       -0.5466
     43 C          17.5710   69.3562   -4.2549 C.2     1  UNL1        0.0799
@<TRIPOS>UNITY_ATOM_ATTR
2 1
charge -1
26 1
charge -1
41 1
charge -1
@<TRIPOS>BOND
     1     1     4    1
     2     1    24    1
     3     1     2    1
     4     1     3    2
     5    25    28    1
     6    25    24    1
     7    25    26    1
     8    25    27    2
     9     6    11    1
    10     6    12    1
    11    29    36    1
    12    29    37    1
    13     7     9    1
    14     7    13    1
    15     8    10    1
    16     8    14    1
    17     4     5    1
    18    28    36    1
    19    30    33    1
    20    30    38    1
    21    31    34    1
    22    31    39    1
    23    32    35    1
    24    32    40    1
    25    41    43   ar
    26    15    19    2
    27    42    43   ar
    28    16    22    2
    29    17    12    1
    30    17    19   ar
    31    17    20   ar
    32    18    19   ar
    33    18    22   ar
    34    18    23    1
    35     9    10    1
    36     9    11    1
    37    10    12    1
    38    11     5    1
    39    33    34    1
    40    33    35    1
    41    34    36    1
    42    35    37    1
    43    37    43    1
    44    20    21   ar
    45    21    22   ar
