@<TRIPOS>MOLECULE
GDU
 43 45 0 0 0
SMALL
GASTEIGER

@<TRIPOS>ATOM
      1 P          22.1470   70.9291   -2.7063 P.3     1  UNL1        0.2189
      2 O          21.5593   69.5876   -2.4953 O.2     1  UNL1       -0.5170
      3 O          23.6176   70.7764   -3.3442 O.3     1  UNL1       -0.4371
      4 O          21.2129   71.7732   -3.7072 O.3     1  UNL1       -0.3112
      5 C          20.2361   72.4352   -2.9021 C.3     1  UNL1        0.1811
      6 C          17.9494   71.3954   -5.4746 C.3     1  UNL1        0.2383
      7 C          18.0760   70.1617   -4.5446 C.3     1  UNL1        0.1895
      8 O          16.8639   69.4040   -4.5348 O.3     1  UNL1       -0.3779
      9 C          18.3276   70.8205   -3.1633 C.3     1  UNL1        0.1713
     10 C          18.8472   72.2283   -3.5092 C.3     1  UNL1        0.1764
     11 O          18.9222   72.3196   -4.9425 O.3     1  UNL1       -0.3308
     12 O          17.1109   70.8983   -2.4179 O.3     1  UNL1       -0.3794
     13 H          17.0085   68.6544   -3.9406 H       1  UNL1        0.2106
     14 H          16.8057   69.9907   -2.2844 H       1  UNL1        0.2105
     15 N          18.2783   71.0388   -6.8557 N.ar    1  UNL1       -0.2551
     16 C          17.2962   70.6955   -7.7077 C.ar    1  UNL1        0.3323
     17 N          17.5713   70.3668   -8.9837 N.ar    1  UNL1       -0.2743
     18 C          18.8432   70.3670   -9.4269 C.ar    1  UNL1        0.2626
     19 C          19.8886   70.7209   -8.5390 C.ar    1  UNL1        0.0795
     20 C          19.5844   71.0504   -7.2657 C.ar    1  UNL1        0.0869
     21 O          16.1440   70.6912   -7.3225 O.2     1  UNL1       -0.2464
     22 O          19.0937   70.0650  -10.5804 O.2     1  UNL1       -0.2670
     23 H          16.8496   70.1258   -9.5861 H       1  UNL1        0.1734
     24 O          22.2530   71.6956   -1.2943 O.3     1  UNL1       -0.2703
     25 P          21.7773   70.6557   -0.1619 P.3     1  UNL1        0.2208
     26 O          20.6599   69.8372   -0.6822 O.2     1  UNL1       -0.5170
     27 O          23.0073   69.6940    0.2339 O.3     1  UNL1       -0.4371
     28 O          21.2898   71.4651    1.1408 O.3     1  UNL1       -0.2858
     29 C          22.2996   72.4326    1.4303 C.3     1  UNL1        0.2704
     30 C          22.7710   72.2601    2.8751 C.3     1  UNL1        0.1967
     31 C          21.5729   72.4312    3.8141 C.3     1  UNL1        0.1715
     32 C          20.8952   73.7708    3.5047 C.3     1  UNL1        0.1694
     33 C          20.5641   73.8279    2.0113 C.3     1  UNL1        0.1761
     34 O          23.3306   70.9564    3.0435 O.3     1  UNL1       -0.3775
     35 O          22.0211   72.4193    5.1712 O.3     1  UNL1       -0.3794
     36 O          21.7765   74.8420    3.8449 O.3     1  UNL1       -0.3794
     37 O          21.7667   73.7423    1.2481 O.3     1  UNL1       -0.3258
     38 H          24.0748   70.8908    2.4296 H       1  UNL1        0.2106
     39 H          22.4497   71.5664    5.3168 H       1  UNL1        0.2105
     40 H          21.9616   74.7629    4.7898 H       1  UNL1        0.2105
     41 C          19.8559   75.1478    1.6978 C.3     1  UNL1        0.1693
     42 O          19.6021   75.2296    0.2943 O.3     1  UNL1       -0.3794
     43 H          19.1554   76.0732    0.1393 H       1  UNL1        0.2105
@<TRIPOS>BOND
     1    15    16   ar
     2    15    20   ar
     3    15     6    1
     4    16    17   ar
     5    16    21    2
     6    17    18   ar
     7    17    23    1
     8    18    19   ar
     9    18    22    2
    10    19    20   ar
    11     6     7    1
    12     6    11    1
    13     7     8    1
    14     7     9    1
    15     8    13    1
    16     9    10    1
    17     9    12    1
    18    10    11    1
    19    10     5    1
    20    12    14    1
    21     5     4    1
    22     4     1    1
    23     1     2    2
    24     1     3    1
    25     1    24    1
    26    24    25    1
    27    25    26    2
    28    25    27    1
    29    25    28    1
    30    28    29    1
    31    29    30    1
    32    29    37    1
    33    30    31    1
    34    30    34    1
    35    31    32    1
    36    31    35    1
    37    32    33    1
    38    32    36    1
    39    33    41    1
    40    33    37    1
    41    41    42    1
    42    34    38    1
    43    35    39    1
    44    36    40    1
    45    42    43    1
@<TRIPOS>MOLECULE
GDU
 43 45 0 0 0
SMALL
GASTEIGER

@<TRIPOS>ATOM
      1 P          22.1439   70.8237   -2.5704 P.3     1  UNL1        0.2189
      2 O          21.5213   69.6023   -2.0136 O.2     1  UNL1       -0.5170
      3 O          23.5365   70.4396   -3.2817 O.3     1  UNL1       -0.4371
      4 O          21.1540   71.4862   -3.6512 O.3     1  UNL1       -0.3112
      5 C          20.1448   72.1809   -2.9168 C.3     1  UNL1        0.1811
      6 C          18.0138   71.2617   -5.6629 C.3     1  UNL1        0.2383
      7 C          18.0747   69.9920   -4.7757 C.3     1  UNL1        0.1895
      8 O          16.8593   69.2455   -4.8697 O.3     1  UNL1       -0.3779
      9 C          18.2452   70.5949   -3.3570 C.3     1  UNL1        0.1713
     10 C          18.7946   72.0102   -3.6153 C.3     1  UNL1        0.1764
     11 O          18.9582   72.1559   -5.0367 O.3     1  UNL1       -0.3308
     12 O          16.9856   70.6549   -2.6850 O.3     1  UNL1       -0.3794
     13 H          16.9620   68.4723   -4.2975 H       1  UNL1        0.2106
     14 H          16.6667   69.7456   -2.6060 H       1  UNL1        0.2105
     15 N          18.4247   70.9556   -7.0342 N.ar    1  UNL1       -0.2551
     16 C          17.4946   70.6536   -7.9573 C.ar    1  UNL1        0.3323
     17 N          17.8455   70.3718   -9.2259 N.ar    1  UNL1       -0.2743
     18 C          19.1422   70.3782   -9.5902 C.ar    1  UNL1        0.2626
     19 C          20.1332   70.6889   -8.6271 C.ar    1  UNL1        0.0795
     20 C          19.7535   70.9719   -7.3629 C.ar    1  UNL1        0.0869
     21 O          16.3209   70.6443   -7.6437 O.2     1  UNL1       -0.2464
     22 O          19.4611   70.1186  -10.7371 O.2     1  UNL1       -0.2670
     23 H          17.1607   70.1602   -9.8801 H       1  UNL1        0.1734
     24 O          22.4218   71.8730   -1.3812 O.3     1  UNL1       -0.2703
     25 P          22.3885   71.0387   -0.0054 P.3     1  UNL1        0.2208
     26 O          21.0741   70.3745    0.1367 O.2     1  UNL1       -0.5170
     27 O          23.5524   69.9256   -0.0248 O.3     1  UNL1       -0.4371
     28 O          22.6232   72.0372    1.2348 O.3     1  UNL1       -0.2858
     29 C          21.3389   72.5284    1.6209 C.3     1  UNL1        0.2704
     30 C          21.1940   73.9832    1.1716 C.3     1  UNL1        0.1967
     31 C          22.3073   74.8166    1.8138 C.3     1  UNL1        0.1715
     32 C          22.2721   74.5956    3.3303 C.3     1  UNL1        0.1694
     33 C          22.3373   73.0933    3.6160 C.3     1  UNL1        0.1761
     34 O          21.2988   74.0573   -0.2514 O.3     1  UNL1       -0.3775
     35 O          22.0999   76.2003    1.5229 O.3     1  UNL1       -0.3794
     36 O          21.0627   75.1364    3.8640 O.3     1  UNL1       -0.3794
     37 O          21.2060   72.4438    3.0378 O.3     1  UNL1       -0.3258
     38 H          20.5851   73.5140   -0.6123 H       1  UNL1        0.2106
     39 H          22.1179   76.2899    0.5617 H       1  UNL1        0.2105
     40 H          21.0622   76.0798    3.6560 H       1  UNL1        0.2105
     41 C          22.3373   72.8632    5.1290 C.3     1  UNL1        0.1693
     42 O          21.0138   73.0399    5.6369 O.3     1  UNL1       -0.3794
     43 H          21.0571   72.8857    6.5906 H       1  UNL1        0.2105
@<TRIPOS>BOND
     1    15    16   ar
     2    15    20   ar
     3    15     6    1
     4    16    17   ar
     5    16    21    2
     6    17    18   ar
     7    17    23    1
     8    18    19   ar
     9    18    22    2
    10    19    20   ar
    11     6     7    1
    12     6    11    1
    13     7     8    1
    14     7     9    1
    15     8    13    1
    16     9    10    1
    17     9    12    1
    18    10    11    1
    19    10     5    1
    20    12    14    1
    21     5     4    1
    22     4     1    1
    23     1     2    2
    24     1     3    1
    25     1    24    1
    26    24    25    1
    27    25    26    2
    28    25    27    1
    29    25    28    1
    30    28    29    1
    31    29    30    1
    32    29    37    1
    33    30    31    1
    34    30    34    1
    35    31    32    1
    36    31    35    1
    37    32    33    1
    38    32    36    1
    39    33    41    1
    40    33    37    1
    41    41    42    1
    42    34    38    1
    43    35    39    1
    44    36    40    1
    45    42    43    1
@<TRIPOS>MOLECULE
GDU
 43 45 0 0 0
SMALL
GASTEIGER

@<TRIPOS>ATOM
      1 P          21.6810   70.4415   -0.4972 P.3     1  UNL1        0.2189
      2 O          21.5922   69.3544    0.5028 O.2     1  UNL1       -0.5170
      3 O          23.1983   70.5651   -1.0220 O.3     1  UNL1       -0.4371
      4 O          20.7098   70.1122   -1.7362 O.3     1  UNL1       -0.3112
      5 C          20.7348   71.2526   -2.5960 C.3     1  UNL1        0.1811
      6 C          18.2538   71.1770   -5.1972 C.3     1  UNL1        0.2383
      7 C          18.0606   69.8404   -4.4362 C.3     1  UNL1        0.1895
      8 O          16.6946   69.4216   -4.4798 O.3     1  UNL1       -0.3779
      9 C          18.4752   70.2258   -2.9923 C.3     1  UNL1        0.1713
     10 C          19.3386   71.4878   -3.1750 C.3     1  UNL1        0.1764
     11 O          19.4322   71.7448   -4.5869 O.3     1  UNL1       -0.3308
     12 O          17.3205   70.5117   -2.2005 O.3     1  UNL1       -0.3794
     13 H          16.6426   68.5884   -3.9910 H       1  UNL1        0.2106
     14 H          16.7926   69.7023   -2.1725 H       1  UNL1        0.2105
     15 N          18.4779   70.9334   -6.6231 N.ar    1  UNL1       -0.2551
     16 C          17.4261   70.8058   -7.4512 C.ar    1  UNL1        0.3323
     17 N          17.6047   70.5850   -8.7669 N.ar    1  UNL1       -0.2743
     18 C          18.8471   70.4780   -9.2760 C.ar    1  UNL1        0.2626
     19 C          19.9644   70.6045   -8.4147 C.ar    1  UNL1        0.0795
     20 C          19.7570   70.8299   -7.0999 C.ar    1  UNL1        0.0869
     21 O          16.2994   70.9004   -7.0066 O.2     1  UNL1       -0.2464
     22 O          19.0097   70.2734  -10.4660 O.2     1  UNL1       -0.2670
     23 H          16.8342   70.4997   -9.3507 H       1  UNL1        0.1734
     24 O          21.2346   71.8315    0.1817 O.3     1  UNL1       -0.2703
     25 P          21.9724   71.9116    1.6097 P.3     1  UNL1        0.2208
     26 O          20.9604   71.8992    2.6890 O.2     1  UNL1       -0.5170
     27 O          22.9522   70.6445    1.7790 O.3     1  UNL1       -0.4371
     28 O          22.8328   73.2689    1.6951 O.3     1  UNL1       -0.2858
     29 C          22.1644   74.2357    0.8836 C.3     1  UNL1        0.2704
     30 C          23.1061   74.7082   -0.2251 C.3     1  UNL1        0.1967
     31 C          24.3621   75.3116    0.4110 C.3     1  UNL1        0.1715
     32 C          23.9346   76.3937    1.4088 C.3     1  UNL1        0.1694
     33 C          22.9308   75.7922    2.3956 C.3     1  UNL1        0.1761
     34 O          23.4704   73.5990   -1.0487 O.3     1  UNL1       -0.3775
     35 O          25.1844   75.8898   -0.6049 O.3     1  UNL1       -0.3794
     36 O          23.3288   77.4794    0.7058 O.3     1  UNL1       -0.3794
     37 O          21.7737   75.3434    1.6917 O.3     1  UNL1       -0.3258
     38 H          22.6506   73.2472   -1.4215 H       1  UNL1        0.2106
     39 H          25.4186   75.1781   -1.2141 H       1  UNL1        0.2105
     40 H          23.9932   77.8222    0.0940 H       1  UNL1        0.2105
     41 C          22.5233   76.8558    3.4178 C.3     1  UNL1        0.1693
     42 O          21.7628   76.2452    4.4618 O.3     1  UNL1       -0.3794
     43 H          21.5270   76.9473    5.0836 H       1  UNL1        0.2105
@<TRIPOS>BOND
     1    15    16   ar
     2    15    20   ar
     3    15     6    1
     4    16    17   ar
     5    16    21    2
     6    17    18   ar
     7    17    23    1
     8    18    19   ar
     9    18    22    2
    10    19    20   ar
    11     6     7    1
    12     6    11    1
    13     7     8    1
    14     7     9    1
    15     8    13    1
    16     9    10    1
    17     9    12    1
    18    10    11    1
    19    10     5    1
    20    12    14    1
    21     5     4    1
    22     4     1    1
    23     1     2    2
    24     1     3    1
    25     1    24    1
    26    24    25    1
    27    25    26    2
    28    25    27    1
    29    25    28    1
    30    28    29    1
    31    29    30    1
    32    29    37    1
    33    30    31    1
    34    30    34    1
    35    31    32    1
    36    31    35    1
    37    32    33    1
    38    32    36    1
    39    33    41    1
    40    33    37    1
    41    41    42    1
    42    34    38    1
    43    35    39    1
    44    36    40    1
    45    42    43    1
@<TRIPOS>MOLECULE
GDU
 43 45 0 0 0
SMALL
GASTEIGER

@<TRIPOS>ATOM
      1 P          22.2372   70.5219   -0.3745 P.3     1  UNL1        0.2189
      2 O          21.3721   71.0087    0.7228 O.2     1  UNL1       -0.5170
      3 O          23.4451   69.6522    0.2400 O.3     1  UNL1       -0.4371
      4 O          21.3719   69.6069   -1.3749 O.3     1  UNL1       -0.3112
      5 C          21.3509   70.2779   -2.6358 C.3     1  UNL1        0.1811
      6 C          18.6240   70.6882   -4.9429 C.3     1  UNL1        0.2383
      7 C          18.4953   69.2260   -4.4444 C.3     1  UNL1        0.1895
      8 O          17.1280   68.8092   -4.4344 O.3     1  UNL1       -0.3779
      9 C          19.0541   69.3245   -3.0011 C.3     1  UNL1        0.1713
     10 C          19.9063   70.6071   -3.0164 C.3     1  UNL1        0.1764
     11 O          19.8620   71.1377   -4.3523 O.3     1  UNL1       -0.3308
     12 O          17.9861   69.4366   -2.0584 O.3     1  UNL1       -0.3794
     13 H          17.1173   67.8957   -4.1164 H       1  UNL1        0.2106
     14 H          17.4564   68.6318   -2.1382 H       1  UNL1        0.2105
     15 N          18.7036   70.7323   -6.4039 N.ar    1  UNL1       -0.2551
     16 C          17.5748   70.7076   -7.1343 C.ar    1  UNL1        0.3323
     17 N          17.6202   70.7506   -8.4789 N.ar    1  UNL1       -0.2743
     18 C          18.8045   70.8094   -9.1178 C.ar    1  UNL1        0.2626
     19 C          20.0019   70.8302   -8.3616 C.ar    1  UNL1        0.0795
     20 C          19.9277   70.7904   -7.0142 C.ar    1  UNL1        0.0869
     21 O          16.4991   70.6551   -6.5721 O.2     1  UNL1       -0.2464
     22 O          18.8467   70.8435  -10.3350 O.2     1  UNL1       -0.2670
     23 H          16.7954   70.7362   -8.9901 H       1  UNL1        0.1734
     24 O          22.8390   71.7793   -1.1803 O.3     1  UNL1       -0.2703
     25 P          22.2148   73.1037   -0.5122 P.3     1  UNL1        0.2208
     26 O          22.4549   74.2634   -1.3991 O.2     1  UNL1       -0.5170
     27 O          20.6297   72.9049   -0.3069 O.3     1  UNL1       -0.4371
     28 O          22.9109   73.3652    0.9151 O.3     1  UNL1       -0.2858
     29 C          22.1533   74.3864    1.5654 C.3     1  UNL1        0.2704
     30 C          23.0635   75.5756    1.8764 C.3     1  UNL1        0.1967
     31 C          24.2135   75.1027    2.7710 C.3     1  UNL1        0.1715
     32 C          23.6226   74.3956    3.9959 C.3     1  UNL1        0.1694
     33 C          22.6708   73.2938    3.5236 C.3     1  UNL1        0.1761
     34 O          23.5895   76.1070    0.6590 O.3     1  UNL1       -0.3775
     35 O          24.9891   76.2274    3.1905 O.3     1  UNL1       -0.3794
     36 O          22.9088   75.3402    4.7948 O.3     1  UNL1       -0.3794
     37 O          21.6018   73.8697    2.7743 O.3     1  UNL1       -0.3258
     38 H          22.8323   76.3847    0.1257 H       1  UNL1        0.2106
     39 H          25.3296   76.6467    2.3902 H       1  UNL1        0.2105
     40 H          23.5444   76.0161    5.0639 H       1  UNL1        0.2105
     41 C          22.1013   72.5586    4.7390 C.3     1  UNL1        0.1693
     42 O          20.9381   73.2435    5.2070 O.3     1  UNL1       -0.3794
     43 H          20.6105   72.7490    5.9708 H       1  UNL1        0.2105
@<TRIPOS>BOND
     1    15    16   ar
     2    15    20   ar
     3    15     6    1
     4    16    17   ar
     5    16    21    2
     6    17    18   ar
     7    17    23    1
     8    18    19   ar
     9    18    22    2
    10    19    20   ar
    11     6     7    1
    12     6    11    1
    13     7     8    1
    14     7     9    1
    15     8    13    1
    16     9    10    1
    17     9    12    1
    18    10    11    1
    19    10     5    1
    20    12    14    1
    21     5     4    1
    22     4     1    1
    23     1     2    2
    24     1     3    1
    25     1    24    1
    26    24    25    1
    27    25    26    2
    28    25    27    1
    29    25    28    1
    30    28    29    1
    31    29    30    1
    32    29    37    1
    33    30    31    1
    34    30    34    1
    35    31    32    1
    36    31    35    1
    37    32    33    1
    38    32    36    1
    39    33    41    1
    40    33    37    1
    41    41    42    1
    42    34    38    1
    43    35    39    1
    44    36    40    1
    45    42    43    1
@<TRIPOS>MOLECULE
GDU
 43 45 0 0 0
SMALL
GASTEIGER

@<TRIPOS>ATOM
      1 P          21.9118   70.9882   -2.4345 P.3     1  UNL1        0.2189
      2 O          20.7652   71.8901   -2.1865 O.2     1  UNL1       -0.5170
      3 O          21.4029   69.4604   -2.4326 O.3     1  UNL1       -0.4371
      4 O          22.5678   71.3335   -3.8618 O.3     1  UNL1       -0.3112
      5 C          22.7815   72.7456   -3.8882 C.3     1  UNL1        0.1811
      6 C          19.9645   73.0177   -6.1057 C.3     1  UNL1        0.2383
      7 C          19.6464   74.0008   -4.9502 C.3     1  UNL1        0.1895
      8 O          18.8674   75.1038   -5.4189 O.3     1  UNL1       -0.3779
      9 C          21.0621   74.4664   -4.5208 C.3     1  UNL1        0.1713
     10 C          21.9955   73.3606   -5.0476 C.3     1  UNL1        0.1764
     11 O          21.1698   72.3576   -5.6643 O.3     1  UNL1       -0.3308
     12 O          21.3776   75.7244   -5.1205 O.3     1  UNL1       -0.3794
     13 H          18.7045   75.6747   -4.6552 H       1  UNL1        0.2106
     14 H          20.7243   76.3601   -4.7982 H       1  UNL1        0.2105
     15 N          18.8793   72.0502   -6.2761 N.ar    1  UNL1       -0.2551
     16 C          18.4910   71.6946   -7.5135 C.ar    1  UNL1        0.3323
     17 N          17.4983   70.8045   -7.6977 N.ar    1  UNL1       -0.2743
     18 C          16.8679   70.2602   -6.6391 C.ar    1  UNL1        0.2626
     19 C          17.2624   70.6297   -5.3299 C.ar    1  UNL1        0.0795
     20 C          18.2638   71.5214   -5.1735 C.ar    1  UNL1        0.0869
     21 O          19.0506   72.1768   -8.4781 O.2     1  UNL1       -0.2464
     22 O          15.9660   69.4580   -6.8049 O.2     1  UNL1       -0.2670
     23 H          17.2339   70.5562   -8.5978 H       1  UNL1        0.1734
     24 O          23.0109   71.1877   -1.2749 O.3     1  UNL1       -0.2703
     25 P          22.3500   70.6527    0.0915 P.3     1  UNL1        0.2208
     26 O          20.8866   70.5252   -0.0855 O.2     1  UNL1       -0.5170
     27 O          22.9727   69.2140    0.4610 O.3     1  UNL1       -0.4371
     28 O          22.6592   71.6914    1.2812 O.3     1  UNL1       -0.2858
     29 C          21.4863   72.4881    1.4518 C.3     1  UNL1        0.2704
     30 C          21.7510   73.9019    0.9318 C.3     1  UNL1        0.1967
     31 C          22.9303   74.5038    1.7021 C.3     1  UNL1        0.1715
     32 C          22.6366   74.4053    3.2033 C.3     1  UNL1        0.1694
     33 C          22.3064   72.9518    3.5515 C.3     1  UNL1        0.1761
     34 O          22.0643   73.8488   -0.4611 O.3     1  UNL1       -0.3775
     35 O          23.0964   75.8741    1.3318 O.3     1  UNL1       -0.3794
     36 O          21.5271   75.2436    3.5291 O.3     1  UNL1       -0.3794
     37 O          21.1442   72.5372    2.8350 O.3     1  UNL1       -0.3258
     38 H          21.2991   73.4578   -0.9044 H       1  UNL1        0.2106
     39 H          23.2665   75.8886    0.3815 H       1  UNL1        0.2105
     40 H          21.7772   76.1451    3.2883 H       1  UNL1        0.2105
     41 C          22.0449   72.8361    5.0549 C.3     1  UNL1        0.1693
     42 O          20.6826   73.1687    5.3276 O.3     1  UNL1       -0.3794
     43 H          20.5593   73.0828    6.2829 H       1  UNL1        0.2105
@<TRIPOS>BOND
     1    15    16   ar
     2    15    20   ar
     3    15     6    1
     4    16    17   ar
     5    16    21    2
     6    17    18   ar
     7    17    23    1
     8    18    19   ar
     9    18    22    2
    10    19    20   ar
    11     6     7    1
    12     6    11    1
    13     7     8    1
    14     7     9    1
    15     8    13    1
    16     9    10    1
    17     9    12    1
    18    10    11    1
    19    10     5    1
    20    12    14    1
    21     5     4    1
    22     4     1    1
    23     1     2    2
    24     1     3    1
    25     1    24    1
    26    24    25    1
    27    25    26    2
    28    25    27    1
    29    25    28    1
    30    28    29    1
    31    29    30    1
    32    29    37    1
    33    30    31    1
    34    30    34    1
    35    31    32    1
    36    31    35    1
    37    32    33    1
    38    32    36    1
    39    33    41    1
    40    33    37    1
    41    41    42    1
    42    34    38    1
    43    35    39    1
    44    36    40    1
    45    42    43    1
@<TRIPOS>MOLECULE
GDU
 43 45 0 0 0
SMALL
GASTEIGER

@<TRIPOS>ATOM
      1 P          22.3551   71.6433   -2.4550 P.3     1  UNL1        0.2189
      2 O          22.0475   70.9358   -1.1924 O.2     1  UNL1       -0.5170
      3 O          23.4977   70.8395   -3.2559 O.3     1  UNL1       -0.4371
      4 O          21.0275   71.7312   -3.3586 O.3     1  UNL1       -0.3112
      5 C          20.0144   72.3292   -2.5483 C.3     1  UNL1        0.1811
      6 C          17.8467   71.4451   -5.2773 C.3     1  UNL1        0.2383
      7 C          17.8833   70.1791   -4.3835 C.3     1  UNL1        0.1895
      8 O          16.6504   69.4606   -4.4665 O.3     1  UNL1       -0.3779
      9 C          18.0760   70.7854   -2.9691 C.3     1  UNL1        0.1713
     10 C          18.6565   72.1861   -3.2382 C.3     1  UNL1        0.1764
     11 O          18.8152   72.3205   -4.6613 O.3     1  UNL1       -0.3308
     12 O          16.8220   70.8782   -2.2903 O.3     1  UNL1       -0.3794
     13 H          16.7385   68.6882   -3.8907 H       1  UNL1        0.2106
     14 H          16.4826   69.9770   -2.2045 H       1  UNL1        0.2105
     15 N          18.2424   71.1223   -6.6491 N.ar    1  UNL1       -0.2551
     16 C          17.3025   70.8064   -7.5575 C.ar    1  UNL1        0.3323
     17 N          17.6392   70.5091   -8.8263 N.ar    1  UNL1       -0.2743
     18 C          18.9316   70.5136   -9.2057 C.ar    1  UNL1        0.2626
     19 C          19.9330   70.8388   -8.2582 C.ar    1  UNL1        0.0795
     20 C          19.5673   71.1372   -6.9934 C.ar    1  UNL1        0.0869
     21 O          16.1325   70.7986   -7.2301 O.2     1  UNL1       -0.2464
     22 O          19.2378   70.2399  -10.3528 O.2     1  UNL1       -0.2670
     23 H          16.9474   70.2876   -9.4698 H       1  UNL1        0.1734
     24 O          22.8790   73.1291   -2.1227 O.3     1  UNL1       -0.2703
     25 P          23.2081   73.8338   -3.5316 P.3     1  UNL1        0.2208
     26 O          23.9490   72.8879   -4.3949 O.2     1  UNL1       -0.5170
     27 O          21.8322   74.2550   -4.2551 O.3     1  UNL1       -0.4371
     28 O          24.1042   75.1467   -3.2797 O.3     1  UNL1       -0.2858
     29 C          25.4605   74.7105   -3.1797 C.3     1  UNL1        0.2704
     30 C          26.1451   75.4376   -2.0213 C.3     1  UNL1        0.1967
     31 C          26.0796   76.9474   -2.2719 C.3     1  UNL1        0.1715
     32 C          26.6609   77.2393   -3.6599 C.3     1  UNL1        0.1694
     33 C          25.9352   76.3763   -4.6951 C.3     1  UNL1        0.1761
     34 O          25.4767   75.1246   -0.7979 O.3     1  UNL1       -0.3775
     35 O          26.8414   77.6329   -1.2758 O.3     1  UNL1       -0.3794
     36 O          28.0557   76.9322   -3.6680 O.3     1  UNL1       -0.3794
     37 O          26.1408   74.9955   -4.3998 O.3     1  UNL1       -0.3258
     38 H          25.5365   74.1662   -0.6847 H       1  UNL1        0.2106
     39 H          26.4490   77.4115   -0.4218 H       1  UNL1        0.2105
     40 H          28.4697   77.4931   -2.9993 H       1  UNL1        0.2105
     41 C          26.4847   76.6853   -6.0895 C.3     1  UNL1        0.1693
     42 O          27.5309   75.7643   -6.4031 O.3     1  UNL1       -0.3794
     43 H          27.8486   75.9922   -7.2877 H       1  UNL1        0.2105
@<TRIPOS>BOND
     1    15    16   ar
     2    15    20   ar
     3    15     6    1
     4    16    17   ar
     5    16    21    2
     6    17    18   ar
     7    17    23    1
     8    18    19   ar
     9    18    22    2
    10    19    20   ar
    11     6     7    1
    12     6    11    1
    13     7     8    1
    14     7     9    1
    15     8    13    1
    16     9    10    1
    17     9    12    1
    18    10    11    1
    19    10     5    1
    20    12    14    1
    21     5     4    1
    22     4     1    1
    23     1     2    2
    24     1     3    1
    25     1    24    1
    26    24    25    1
    27    25    26    2
    28    25    27    1
    29    25    28    1
    30    28    29    1
    31    29    30    1
    32    29    37    1
    33    30    31    1
    34    30    34    1
    35    31    32    1
    36    31    35    1
    37    32    33    1
    38    32    36    1
    39    33    41    1
    40    33    37    1
    41    41    42    1
    42    34    38    1
    43    35    39    1
    44    36    40    1
    45    42    43    1
@<TRIPOS>MOLECULE
GDU
 43 45 0 0 0
SMALL
GASTEIGER

@<TRIPOS>ATOM
      1 P          21.8965   70.3287   -0.2388 P.3     1  UNL1        0.2189
      2 O          22.3760   69.4194    0.8255 O.2     1  UNL1       -0.5170
      3 O          23.1240   71.2233   -0.7736 O.3     1  UNL1       -0.4371
      4 O          21.2941   69.4633   -1.4533 O.3     1  UNL1       -0.3112
      5 C          21.3151   70.3021   -2.6094 C.3     1  UNL1        0.1811
      6 C          18.6280   70.7877   -4.9484 C.3     1  UNL1        0.2383
      7 C          18.4643   69.3236   -4.4662 C.3     1  UNL1        0.1895
      8 O          17.0892   68.9334   -4.4784 O.3     1  UNL1       -0.3779
      9 C          19.0054   69.3972   -3.0146 C.3     1  UNL1        0.1713
     10 C          19.8824   70.6631   -3.0059 C.3     1  UNL1        0.1764
     11 O          19.8663   71.2073   -4.3370 O.3     1  UNL1       -0.3308
     12 O          17.9271   69.5211   -2.0851 O.3     1  UNL1       -0.3794
     13 H          17.0565   68.0172   -4.1696 H       1  UNL1        0.2106
     14 H          17.3831   68.7276   -2.1799 H       1  UNL1        0.2105
     15 N          18.7282   70.8442   -6.4077 N.ar    1  UNL1       -0.2551
     16 C          17.6091   70.8502   -7.1532 C.ar    1  UNL1        0.3323
     17 N          17.6734   70.9052   -8.4966 N.ar    1  UNL1       -0.2743
     18 C          18.8671   70.9454   -9.1192 C.ar    1  UNL1        0.2626
     19 C          20.0545   70.9339   -8.3469 C.ar    1  UNL1        0.0795
     20 C          19.9613   70.8826   -7.0011 C.ar    1  UNL1        0.0869
     21 O          16.5250   70.8148   -6.6059 O.2     1  UNL1       -0.2464
     22 O          18.9265   70.9904  -10.3353 O.2     1  UNL1       -0.2670
     23 H          16.8555   70.9131   -9.0188 H       1  UNL1        0.1734
     24 O          20.7512   71.2919    0.3553 O.3     1  UNL1       -0.2703
     25 P          21.4744   72.6608    0.7947 P.3     1  UNL1        0.2208
     26 O          20.6355   73.3642    1.7900 O.2     1  UNL1       -0.5170
     27 O          22.9093   72.3248    1.4446 O.3     1  UNL1       -0.4371
     28 O          21.6781   73.5998   -0.4964 O.3     1  UNL1       -0.2858
     29 C          22.7196   74.5235   -0.1775 C.3     1  UNL1        0.2704
     30 C          22.1682   75.9493   -0.2263 C.3     1  UNL1        0.1967
     31 C          21.6140   76.2218   -1.6281 C.3     1  UNL1        0.1715
     32 C          22.7070   75.9096   -2.6564 C.3     1  UNL1        0.1694
     33 C          23.2165   74.4850   -2.4243 C.3     1  UNL1        0.1761
     34 O          21.1245   76.0921    0.7388 O.3     1  UNL1       -0.3775
     35 O          21.2297   77.5943   -1.7340 O.3     1  UNL1       -0.3794
     36 O          23.7828   76.8372   -2.5069 O.3     1  UNL1       -0.3794
     37 O          23.7817   74.3827   -1.1182 O.3     1  UNL1       -0.3258
     38 H          21.5159   75.9049    1.6028 H       1  UNL1        0.2106
     39 H          20.5522   77.7477   -1.0634 H       1  UNL1        0.2105
     40 H          23.4153   77.7183   -2.6555 H       1  UNL1        0.2105
     41 C          24.2847   74.1508   -3.4680 C.3     1  UNL1        0.1693
     42 O          24.0984   72.8107   -3.9268 O.3     1  UNL1       -0.3794
     43 H          24.7892   72.6406   -4.5818 H       1  UNL1        0.2105
@<TRIPOS>BOND
     1    15    16   ar
     2    15    20   ar
     3    15     6    1
     4    16    17   ar
     5    16    21    2
     6    17    18   ar
     7    17    23    1
     8    18    19   ar
     9    18    22    2
    10    19    20   ar
    11     6     7    1
    12     6    11    1
    13     7     8    1
    14     7     9    1
    15     8    13    1
    16     9    10    1
    17     9    12    1
    18    10    11    1
    19    10     5    1
    20    12    14    1
    21     5     4    1
    22     4     1    1
    23     1     2    2
    24     1     3    1
    25     1    24    1
    26    24    25    1
    27    25    26    2
    28    25    27    1
    29    25    28    1
    30    28    29    1
    31    29    30    1
    32    29    37    1
    33    30    31    1
    34    30    34    1
    35    31    32    1
    36    31    35    1
    37    32    33    1
    38    32    36    1
    39    33    41    1
    40    33    37    1
    41    41    42    1
    42    34    38    1
    43    35    39    1
    44    36    40    1
    45    42    43    1
@<TRIPOS>MOLECULE
GDU
 43 45 0 0 0
SMALL
GASTEIGER

@<TRIPOS>ATOM
      1 P          22.3585   73.6718   -4.0016 P.3     1  UNL1        0.2189
      2 O          23.5849   72.9290   -4.3672 O.2     1  UNL1       -0.5170
      3 O          21.1317   72.6401   -3.8491 O.3     1  UNL1       -0.4371
      4 O          22.5909   74.4392   -2.6073 O.3     1  UNL1       -0.3112
      5 C          21.8275   73.7440   -1.6202 C.3     1  UNL1        0.1811
      6 C          23.0081   72.3666    1.4840 C.3     1  UNL1        0.2383
      7 C          22.0244   71.3018    0.9350 C.3     1  UNL1        0.1895
      8 O          22.4152   69.9885    1.3422 O.3     1  UNL1       -0.3779
      9 C          22.1807   71.4750   -0.5982 C.3     1  UNL1        0.1713
     10 C          22.7608   72.8926   -0.7575 C.3     1  UNL1        0.1764
     11 O          22.8675   73.4646    0.5576 O.3     1  UNL1       -0.3308
     12 O          23.0812   70.4969   -1.1222 O.3     1  UNL1       -0.3794
     13 H          21.7653   69.3762    0.9699 H       1  UNL1        0.2106
     14 H          22.6914   69.6312   -0.9398 H       1  UNL1        0.2105
     15 N          22.6238   72.7792    2.8349 N.ar    1  UNL1       -0.2551
     16 C          21.3527   72.6207    3.2443 C.ar    1  UNL1        0.3323
     17 N          20.9741   72.9885    4.4826 N.ar    1  UNL1       -0.2743
     18 C          21.8657   73.5333    5.3326 C.ar    1  UNL1        0.2626
     19 C          23.2067   73.7116    4.9130 C.ar    1  UNL1        0.0795
     20 C          23.5606   73.3301    3.6673 C.ar    1  UNL1        0.0869
     21 O          20.5373   72.1302    2.4889 O.2     1  UNL1       -0.2464
     22 O          21.5228   73.8709    6.4519 O.2     1  UNL1       -0.2670
     23 H          20.0535   72.8629    4.7628 H       1  UNL1        0.1734
     24 O          22.0172   74.7426   -5.1546 O.3     1  UNL1       -0.2703
     25 P          21.8424   73.9146   -6.5235 P.3     1  UNL1        0.2208
     26 O          22.3366   74.7265   -7.6573 O.2     1  UNL1       -0.5170
     27 O          22.6881   72.5468   -6.4347 O.3     1  UNL1       -0.4371
     28 O          20.2868   73.5686   -6.7478 O.3     1  UNL1       -0.2858
     29 C          20.2091   72.1707   -7.0297 C.3     1  UNL1        0.2704
     30 C          20.0650   71.9627   -8.5381 C.3     1  UNL1        0.1967
     31 C          18.8030   72.6831   -9.0225 C.3     1  UNL1        0.1715
     32 C          17.6133   72.2062   -8.1818 C.3     1  UNL1        0.1694
     33 C          17.9428   72.3977   -6.6993 C.3     1  UNL1        0.1761
     34 O          21.2092   72.4971   -9.2063 O.3     1  UNL1       -0.3775
     35 O          18.5741   72.3772  -10.3996 O.3     1  UNL1       -0.3794
     36 O          17.3645   70.8248   -8.4463 O.3     1  UNL1       -0.3794
     37 O          19.0838   71.6133   -6.3546 O.3     1  UNL1       -0.3258
     38 H          21.9787   72.0206   -8.8662 H       1  UNL1        0.2106
     39 H          19.3497   72.6828  -10.8868 H       1  UNL1        0.2105
     40 H          17.1678   70.7514   -9.3893 H       1  UNL1        0.2105
     41 C          16.7475   71.9563   -5.8517 C.3     1  UNL1        0.1693
     42 O          16.8650   70.5643   -5.5525 O.3     1  UNL1       -0.3794
     43 H          16.0948   70.3269   -5.0180 H       1  UNL1        0.2105
@<TRIPOS>BOND
     1    15    16   ar
     2    15    20   ar
     3    15     6    1
     4    16    17   ar
     5    16    21    2
     6    17    18   ar
     7    17    23    1
     8    18    19   ar
     9    18    22    2
    10    19    20   ar
    11     6     7    1
    12     6    11    1
    13     7     8    1
    14     7     9    1
    15     8    13    1
    16     9    10    1
    17     9    12    1
    18    10    11    1
    19    10     5    1
    20    12    14    1
    21     5     4    1
    22     4     1    1
    23     1     2    2
    24     1     3    1
    25     1    24    1
    26    24    25    1
    27    25    26    2
    28    25    27    1
    29    25    28    1
    30    28    29    1
    31    29    30    1
    32    29    37    1
    33    30    31    1
    34    30    34    1
    35    31    32    1
    36    31    35    1
    37    32    33    1
    38    32    36    1
    39    33    41    1
    40    33    37    1
    41    41    42    1
    42    34    38    1
    43    35    39    1
    44    36    40    1
    45    42    43    1
@<TRIPOS>MOLECULE
GDU
 43 45 0 0 0
SMALL
GASTEIGER

@<TRIPOS>ATOM
      1 P          21.6847   71.4361   -0.4718 P.3     1  UNL1        0.2189
      2 O          20.4848   72.2322   -0.1311 O.2     1  UNL1       -0.5170
      3 O          21.4500   69.9017   -0.0432 O.3     1  UNL1       -0.4371
      4 O          21.9502   71.5161   -2.0561 O.3     1  UNL1       -0.3112
      5 C          21.3529   70.3548   -2.6349 C.3     1  UNL1        0.1811
      6 C          18.6190   70.7031   -4.9440 C.3     1  UNL1        0.2383
      7 C          18.5087   69.2458   -4.4274 C.3     1  UNL1        0.1895
      8 O          17.1467   68.8124   -4.4107 O.3     1  UNL1       -0.3779
      9 C          19.0676   69.3689   -2.9860 C.3     1  UNL1        0.1713
     10 C          19.9040   70.6615   -3.0180 C.3     1  UNL1        0.1764
     11 O          19.8519   71.1751   -4.3603 O.3     1  UNL1       -0.3308
     12 O          17.9992   69.4795   -2.0436 O.3     1  UNL1       -0.3794
     13 H          17.1475   67.9027   -4.0815 H       1  UNL1        0.2106
     14 H          17.4793   68.6674   -2.1129 H       1  UNL1        0.2105
     15 N          18.6968   70.7301   -6.4055 N.ar    1  UNL1       -0.2551
     16 C          17.5663   70.7224   -7.1337 C.ar    1  UNL1        0.3323
     17 N          17.6100   70.7503   -8.4788 N.ar    1  UNL1       -0.2743
     18 C          18.7940   70.7765   -9.1203 C.ar    1  UNL1        0.2626
     19 C          19.9931   70.7791   -8.3663 C.ar    1  UNL1        0.0795
     20 C          19.9206   70.7550   -7.0185 C.ar    1  UNL1        0.0869
     21 O          16.4908   70.6994   -6.5691 O.2     1  UNL1       -0.2464
     22 O          18.8346   70.7969  -10.3378 O.2     1  UNL1       -0.2670
     23 H          16.7841   70.7486   -8.9884 H       1  UNL1        0.1734
     24 O          22.9592   72.0234    0.3176 O.3     1  UNL1       -0.2703
     25 P          22.7581   73.6176    0.4078 P.3     1  UNL1        0.2208
     26 O          24.0362   74.2942    0.0949 O.2     1  UNL1       -0.5170
     27 O          21.6349   74.0774   -0.6510 O.3     1  UNL1       -0.4371
     28 O          22.2881   74.0171    1.8943 O.3     1  UNL1       -0.2858
     29 C          22.8192   73.0281    2.7772 C.3     1  UNL1        0.2704
     30 C          21.7070   72.5119    3.6915 C.3     1  UNL1        0.1967
     31 C          21.1263   73.6878    4.4830 C.3     1  UNL1        0.1715
     32 C          22.2733   74.4126    5.1963 C.3     1  UNL1        0.1694
     33 C          23.3424   74.7866    4.1667 C.3     1  UNL1        0.1761
     34 O          20.6793   71.9102    2.9023 O.3     1  UNL1       -0.3775
     35 O          20.1893   73.2019    5.4466 O.3     1  UNL1       -0.3794
     36 O          22.8379   73.5536    6.1880 O.3     1  UNL1       -0.3794
     37 O          23.8619   73.6039    3.5608 O.3     1  UNL1       -0.3258
     38 H          21.0905   71.1818    2.4172 H       1  UNL1        0.2106
     39 H          19.4947   72.7448    4.9557 H       1  UNL1        0.2105
     40 H          22.1297   73.3402    6.8094 H       1  UNL1        0.2105
     41 C          24.4769   75.5415    4.8632 C.3     1  UNL1        0.1693
     42 O          25.5234   74.6271    5.1941 O.3     1  UNL1       -0.3794
     43 H          26.2172   75.1413    5.6294 H       1  UNL1        0.2105
@<TRIPOS>BOND
     1    15    16   ar
     2    15    20   ar
     3    15     6    1
     4    16    17   ar
     5    16    21    2
     6    17    18   ar
     7    17    23    1
     8    18    19   ar
     9    18    22    2
    10    19    20   ar
    11     6     7    1
    12     6    11    1
    13     7     8    1
    14     7     9    1
    15     8    13    1
    16     9    10    1
    17     9    12    1
    18    10    11    1
    19    10     5    1
    20    12    14    1
    21     5     4    1
    22     4     1    1
    23     1     2    2
    24     1     3    1
    25     1    24    1
    26    24    25    1
    27    25    26    2
    28    25    27    1
    29    25    28    1
    30    28    29    1
    31    29    30    1
    32    29    37    1
    33    30    31    1
    34    30    34    1
    35    31    32    1
    36    31    35    1
    37    32    33    1
    38    32    36    1
    39    33    41    1
    40    33    37    1
    41    41    42    1
    42    34    38    1
    43    35    39    1
    44    36    40    1
    45    42    43    1
@<TRIPOS>MOLECULE
GDU
 43 45 0 0 0
SMALL
GASTEIGER

@<TRIPOS>ATOM
      1 P          21.9701   70.3421   -0.3678 P.3     1  UNL1        0.2189
      2 O          21.1058   70.9140    0.6884 O.2     1  UNL1       -0.5170
      3 O          23.0106   69.3059    0.2931 O.3     1  UNL1       -0.4371
      4 O          21.0603   69.5731   -1.4484 O.3     1  UNL1       -0.3112
      5 C          21.1825   70.2905   -2.6776 C.3     1  UNL1        0.1811
      6 C          18.5658   70.8653   -5.0754 C.3     1  UNL1        0.2383
      7 C          18.2222   69.4908   -4.4465 C.3     1  UNL1        0.1895
      8 O          16.8090   69.2767   -4.4296 O.3     1  UNL1       -0.3779
      9 C          18.7756   69.6452   -3.0060 C.3     1  UNL1        0.1713
     10 C          19.8044   70.7853   -3.1205 C.3     1  UNL1        0.1764
     11 O          19.8500   71.1873   -4.5005 O.3     1  UNL1       -0.3308
     12 O          17.7260   69.9982   -2.1028 O.3     1  UNL1       -0.3794
     13 H          16.6632   68.4086   -4.0284 H       1  UNL1        0.2106
     14 H          17.0862   69.2736   -2.1198 H       1  UNL1        0.2105
     15 N          18.6649   70.7582   -6.5320 N.ar    1  UNL1       -0.2551
     16 C          17.5453   70.7287   -7.2762 C.ar    1  UNL1        0.3323
     17 N          17.6088   70.6343   -8.6175 N.ar    1  UNL1       -0.2743
     18 C          18.8018   70.5575   -9.2380 C.ar    1  UNL1        0.2626
     19 C          19.9894   70.5816   -8.4664 C.ar    1  UNL1        0.0795
     20 C          19.8972   70.6812   -7.1233 C.ar    1  UNL1        0.0869
     21 O          16.4620   70.7977   -6.7307 O.2     1  UNL1       -0.2464
     22 O          18.8602   70.4671  -10.4516 O.2     1  UNL1       -0.2670
     23 H          16.7907   70.6187   -9.1392 H       1  UNL1        0.1734
     24 O          22.7831   71.5267   -1.0945 O.3     1  UNL1       -0.2703
     25 P          22.4134   72.8889   -0.3213 P.3     1  UNL1        0.2208
     26 O          22.7504   72.7490    1.1125 O.2     1  UNL1       -0.5170
     27 O          23.2538   74.1092   -0.9530 O.3     1  UNL1       -0.4371
     28 O          20.8394   73.1856   -0.4773 O.3     1  UNL1       -0.2858
     29 C          20.7172   74.4905   -1.0448 C.3     1  UNL1        0.2704
     30 C          20.3030   75.4823    0.0434 C.3     1  UNL1        0.1967
     31 C          18.9713   75.0295    0.6500 C.3     1  UNL1        0.1715
     32 C          17.9556   74.8420   -0.4826 C.3     1  UNL1        0.1694
     33 C          18.5475   73.8964   -1.5306 C.3     1  UNL1        0.1761
     34 O          21.3052   75.5224    1.0609 O.3     1  UNL1       -0.3775
     35 O          18.4979   76.0214    1.5635 O.3     1  UNL1       -0.3794
     36 O          17.6683   76.1066   -1.0809 O.3     1  UNL1       -0.3794
     37 O          19.7351   74.4674   -2.0780 O.3     1  UNL1       -0.3258
     38 H          22.1254   75.8045    0.6337 H       1  UNL1        0.2106
     39 H          19.1712   76.1144    2.2493 H       1  UNL1        0.2105
     40 H          17.3042   76.6693   -0.3851 H       1  UNL1        0.2105
     41 C          17.5273   73.6752   -2.6497 C.3     1  UNL1        0.1693
     42 O          16.6410   74.7939   -2.7131 O.3     1  UNL1       -0.3794
     43 H          16.0161   74.6157   -3.4293 H       1  UNL1        0.2105
@<TRIPOS>BOND
     1    15    16   ar
     2    15    20   ar
     3    15     6    1
     4    16    17   ar
     5    16    21    2
     6    17    18   ar
     7    17    23    1
     8    18    19   ar
     9    18    22    2
    10    19    20   ar
    11     6     7    1
    12     6    11    1
    13     7     8    1
    14     7     9    1
    15     8    13    1
    16     9    10    1
    17     9    12    1
    18    10    11    1
    19    10     5    1
    20    12    14    1
    21     5     4    1
    22     4     1    1
    23     1     2    2
    24     1     3    1
    25     1    24    1
    26    24    25    1
    27    25    26    2
    28    25    27    1
    29    25    28    1
    30    28    29    1
    31    29    30    1
    32    29    37    1
    33    30    31    1
    34    30    34    1
    35    31    32    1
    36    31    35    1
    37    32    33    1
    38    32    36    1
    39    33    41    1
    40    33    37    1
    41    41    42    1
    42    34    38    1
    43    35    39    1
    44    36    40    1
    45    42    43    1
@<TRIPOS>MOLECULE
GDU
 43 45 0 0 0
SMALL
GASTEIGER

@<TRIPOS>ATOM
      1 P          22.6090   73.4447   -4.3269 P.3     1  UNL1        0.2189
      2 O          23.4468   74.4536   -5.0123 O.2     1  UNL1       -0.5170
      3 O          23.4962   72.1403   -4.0040 O.3     1  UNL1       -0.4371
      4 O          22.0414   74.0611   -2.9540 O.3     1  UNL1       -0.3112
      5 C          22.9810   73.7274   -1.9311 C.3     1  UNL1        0.1811
      6 C          22.1958   73.3452    1.5567 C.3     1  UNL1        0.2383
      7 C          21.1445   74.3551    1.0296 C.3     1  UNL1        0.1895
      8 O          19.9178   74.2389    1.7540 O.3     1  UNL1       -0.3779
      9 C          20.9638   73.8979   -0.4413 C.3     1  UNL1        0.1713
     10 C          22.2455   73.1002   -0.7455 C.3     1  UNL1        0.1764
     11 O          23.0751   73.1542    0.4280 O.3     1  UNL1       -0.3308
     12 O          19.8078   73.0675   -0.5679 O.3     1  UNL1       -0.3794
     13 H          19.3097   74.8912    1.3791 H       1  UNL1        0.2106
     14 H          19.0472   73.6048   -0.3080 H       1  UNL1        0.2105
     15 N          22.9291   73.9063    2.6926 N.ar    1  UNL1       -0.2551
     16 C          22.5455   73.6087    3.9466 C.ar    1  UNL1        0.3323
     17 N          23.2047   74.1086    5.0084 N.ar    1  UNL1       -0.2743
     18 C          24.2591   74.9276    4.8303 C.ar    1  UNL1        0.2626
     19 C          24.6709   75.2544    3.5150 C.ar    1  UNL1        0.0795
     20 C          23.9947   74.7359    2.4680 C.ar    1  UNL1        0.0869
     21 O          21.5965   72.8709    4.1231 O.2     1  UNL1       -0.2464
     22 O          24.8535   75.3843    5.7908 O.2     1  UNL1       -0.2670
     23 H          22.9168   73.8797    5.9065 H       1  UNL1        0.1734
     24 O          21.3789   73.0328   -5.2807 O.3     1  UNL1       -0.2703
     25 P          20.3659   72.1600   -4.3850 P.3     1  UNL1        0.2208
     26 O          21.1382   71.2305   -3.5314 O.2     1  UNL1       -0.5170
     27 O          19.4912   73.1413   -3.4544 O.3     1  UNL1       -0.4371
     28 O          19.3862   71.3193   -5.3459 O.3     1  UNL1       -0.2858
     29 C          18.2138   72.1117   -5.5389 C.3     1  UNL1        0.2704
     30 C          16.9831   71.2038   -5.5584 C.3     1  UNL1        0.1967
     31 C          17.1363   70.1806   -6.6880 C.3     1  UNL1        0.1715
     32 C          17.4136   70.9316   -7.9952 C.3     1  UNL1        0.1694
     33 C          18.6139   71.8595   -7.7912 C.3     1  UNL1        0.1761
     34 O          16.8700   70.5239   -4.3069 O.3     1  UNL1       -0.3775
     35 O          15.9324   69.4208   -6.8142 O.3     1  UNL1       -0.3794
     36 O          16.2656   71.7002   -8.3575 O.3     1  UNL1       -0.3794
     37 O          18.3159   72.8154   -6.7746 O.3     1  UNL1       -0.3258
     38 H          16.7831   71.2051   -3.6263 H       1  UNL1        0.2106
     39 H          15.7918   68.9768   -5.9684 H       1  UNL1        0.2105
     40 H          15.5357   71.0773   -8.4695 H       1  UNL1        0.2105
     41 C          18.9207   72.5891   -9.1009 C.3     1  UNL1        0.1693
     42 O          18.6460   71.7230  -10.2033 O.3     1  UNL1       -0.3794
     43 H          18.8512   72.2196  -11.0074 H       1  UNL1        0.2105
@<TRIPOS>BOND
     1    15    16   ar
     2    15    20   ar
     3    15     6    1
     4    16    17   ar
     5    16    21    2
     6    17    18   ar
     7    17    23    1
     8    18    19   ar
     9    18    22    2
    10    19    20   ar
    11     6     7    1
    12     6    11    1
    13     7     8    1
    14     7     9    1
    15     8    13    1
    16     9    10    1
    17     9    12    1
    18    10    11    1
    19    10     5    1
    20    12    14    1
    21     5     4    1
    22     4     1    1
    23     1     2    2
    24     1     3    1
    25     1    24    1
    26    24    25    1
    27    25    26    2
    28    25    27    1
    29    25    28    1
    30    28    29    1
    31    29    30    1
    32    29    37    1
    33    30    31    1
    34    30    34    1
    35    31    32    1
    36    31    35    1
    37    32    33    1
    38    32    36    1
    39    33    41    1
    40    33    37    1
    41    41    42    1
    42    34    38    1
    43    35    39    1
    44    36    40    1
    45    42    43    1
@<TRIPOS>MOLECULE
GDU
 43 45 0 0 0
SMALL
GASTEIGER

@<TRIPOS>ATOM
      1 P          20.4132   70.6067   -2.3010 P.3     1  UNL1        0.2189
      2 O          20.8078   69.1840   -2.2019 O.2     1  UNL1       -0.5170
      3 O          21.3493   71.3492   -3.3805 O.3     1  UNL1       -0.4371
      4 O          18.8763   70.7067   -2.7645 O.3     1  UNL1       -0.3112
      5 C          18.8047   70.1581   -4.0815 C.3     1  UNL1        0.1811
      6 C          18.7652   72.5676   -6.7498 C.3     1  UNL1        0.2383
      7 C          18.4284   71.2198   -7.4376 C.3     1  UNL1        0.1895
      8 O          17.5751   71.4225   -8.5663 O.3     1  UNL1       -0.3779
      9 C          17.6834   70.4574   -6.3110 C.3     1  UNL1        0.1713
     10 C          18.1348   71.1640   -5.0192 C.3     1  UNL1        0.1764
     11 O          19.0759   72.1851   -5.3931 O.3     1  UNL1       -0.3308
     12 O          16.2692   70.5695   -6.4825 O.3     1  UNL1       -0.3794
     13 H          17.4046   70.5498   -8.9473 H       1  UNL1        0.2106
     14 H          16.0572   70.1625   -7.3335 H       1  UNL1        0.2105
     15 N          19.9229   73.1985   -7.3858 N.ar    1  UNL1       -0.2551
     16 C          19.7361   74.1643   -8.3027 C.ar    1  UNL1        0.3323
     17 N          20.7834   74.7629   -8.8997 N.ar    1  UNL1       -0.2743
     18 C          22.0424   74.3947   -8.5935 C.ar    1  UNL1        0.2626
     19 C          22.2542   73.3748   -7.6338 C.ar    1  UNL1        0.0795
     20 C          21.1861   72.7939   -7.0470 C.ar    1  UNL1        0.0869
     21 O          18.6063   74.5074   -8.5889 O.2     1  UNL1       -0.2464
     22 O          22.9909   74.9327   -9.1369 O.2     1  UNL1       -0.2670
     23 H          20.6302   75.4612   -9.5560 H       1  UNL1        0.1734
     24 O          20.5889   71.3126   -0.8646 O.3     1  UNL1       -0.2703
     25 P          21.9461   70.7330   -0.2227 P.3     1  UNL1        0.2208
     26 O          21.6437   69.5033    0.5425 O.2     1  UNL1       -0.5170
     27 O          22.9915   70.3891   -1.3988 O.3     1  UNL1       -0.4371
     28 O          22.5889   71.8334    0.7601 O.3     1  UNL1       -0.2858
     29 C          21.6289   72.8825    0.8928 C.3     1  UNL1        0.2704
     30 C          22.1608   74.1478    0.2179 C.3     1  UNL1        0.1967
     31 C          23.4876   74.5426    0.8738 C.3     1  UNL1        0.1715
     32 C          23.2725   74.6519    2.3875 C.3     1  UNL1        0.1694
     33 C          22.6576   73.3466    2.8985 C.3     1  UNL1        0.1761
     34 O          22.3688   73.8969   -1.1731 O.3     1  UNL1       -0.3775
     35 O          23.9232   75.8014    0.3561 O.3     1  UNL1       -0.3794
     36 O          22.3929   75.7418    2.6676 O.3     1  UNL1       -0.3794
     37 O          21.3914   73.1348    2.2758 O.3     1  UNL1       -0.3258
     38 H          21.5114   73.6455   -1.5426 H       1  UNL1        0.2106
     39 H          24.0336   75.6892   -0.5965 H       1  UNL1        0.2105
     40 H          22.8169   76.5391    2.3242 H       1  UNL1        0.2105
     41 C          22.4703   73.4324    4.4149 C.3     1  UNL1        0.1693
     42 O          21.9706   72.1864    4.9035 O.3     1  UNL1       -0.3794
     43 H          21.8676   72.2820    5.8604 H       1  UNL1        0.2105
@<TRIPOS>BOND
     1    15    16   ar
     2    15    20   ar
     3    15     6    1
     4    16    17   ar
     5    16    21    2
     6    17    18   ar
     7    17    23    1
     8    18    19   ar
     9    18    22    2
    10    19    20   ar
    11     6     7    1
    12     6    11    1
    13     7     8    1
    14     7     9    1
    15     8    13    1
    16     9    10    1
    17     9    12    1
    18    10    11    1
    19    10     5    1
    20    12    14    1
    21     5     4    1
    22     4     1    1
    23     1     2    2
    24     1     3    1
    25     1    24    1
    26    24    25    1
    27    25    26    2
    28    25    27    1
    29    25    28    1
    30    28    29    1
    31    29    30    1
    32    29    37    1
    33    30    31    1
    34    30    34    1
    35    31    32    1
    36    31    35    1
    37    32    33    1
    38    32    36    1
    39    33    41    1
    40    33    37    1
    41    41    42    1
    42    34    38    1
    43    35    39    1
    44    36    40    1
    45    42    43    1
@<TRIPOS>MOLECULE
GDU
 43 45 0 0 0
SMALL
GASTEIGER

@<TRIPOS>ATOM
      1 P          22.3979   74.5688   -3.3946 P.3     1  UNL1        0.2189
      2 O          22.1966   75.6336   -4.4022 O.2     1  UNL1       -0.5170
      3 O          23.8319   73.8742   -3.6271 O.3     1  UNL1       -0.4371
      4 O          22.3441   75.2081   -1.9197 O.3     1  UNL1       -0.3112
      5 C          21.6092   74.2974   -1.1005 C.3     1  UNL1        0.1811
      6 C          23.0046   72.7112    1.8088 C.3     1  UNL1        0.2383
      7 C          21.9333   71.7140    1.2981 C.3     1  UNL1        0.1895
      8 O          22.3050   70.3672    1.6003 O.3     1  UNL1       -0.3779
      9 C          21.9593   71.9648   -0.2322 C.3     1  UNL1        0.1713
     10 C          22.5802   73.3672   -0.3711 C.3     1  UNL1        0.1764
     11 O          22.8269   73.8624    0.9564 O.3     1  UNL1       -0.3308
     12 O          22.7689   70.9850   -0.8853 O.3     1  UNL1       -0.3794
     13 H          21.6002   69.7999    1.2581 H       1  UNL1        0.2106
     14 H          22.3620   70.1252   -0.7126 H       1  UNL1        0.2105
     15 N          22.7593   73.0630    3.2084 N.ar    1  UNL1       -0.2551
     16 C          21.5616   72.8024    3.7615 C.ar    1  UNL1        0.3323
     17 N          21.3114   73.1126    5.0472 N.ar    1  UNL1       -0.2743
     18 C          22.2593   73.7015    5.8015 C.ar    1  UNL1        0.2626
     19 C          23.5237   73.9872    5.2306 C.ar    1  UNL1        0.0795
     20 C          23.7495   73.6617    3.9401 C.ar    1  UNL1        0.0869
     21 O          20.6968   72.2711    3.0937 O.2     1  UNL1       -0.2464
     22 O          22.0321   73.9870    6.9640 O.2     1  UNL1       -0.2670
     23 H          20.4427   72.9134    5.4312 H       1  UNL1        0.1734
     24 O          21.2370   73.4632   -3.5443 O.3     1  UNL1       -0.2703
     25 P          21.8534   72.2535   -4.4085 P.3     1  UNL1        0.2208
     26 O          22.3139   72.7673   -5.7173 O.2     1  UNL1       -0.5170
     27 O          23.0994   71.6093   -3.6169 O.3     1  UNL1       -0.4371
     28 O          20.7260   71.1284   -4.6390 O.3     1  UNL1       -0.2858
     29 C          19.7052   71.3586   -3.6671 C.3     1  UNL1        0.2704
     30 C          19.3890   70.0500   -2.9411 C.3     1  UNL1        0.1967
     31 C          18.9337   69.0079   -3.9673 C.3     1  UNL1        0.1715
     32 C          17.7777   69.5966   -4.7837 C.3     1  UNL1        0.1694
     33 C          18.2171   70.9397   -5.3720 C.3     1  UNL1        0.1761
     34 O          20.5588   69.5816   -2.2677 O.3     1  UNL1       -0.3775
     35 O          18.4949   67.8279   -3.2909 O.3     1  UNL1       -0.3794
     36 O          16.6438   69.7886   -3.9367 O.3     1  UNL1       -0.3794
     37 O          18.5339   71.8467   -4.3171 O.3     1  UNL1       -0.3258
     38 H          20.8132   70.2703   -1.6385 H       1  UNL1        0.2106
     39 H          19.2478   67.5002   -2.7828 H       1  UNL1        0.2105
     40 H          16.4067   68.9205   -3.5854 H       1  UNL1        0.2105
     41 C          17.0814   71.5202   -6.2177 C.3     1  UNL1        0.1693
     42 O          16.3028   70.4543   -6.7641 O.3     1  UNL1       -0.3794
     43 H          15.5993   70.8616   -7.2881 H       1  UNL1        0.2105
@<TRIPOS>BOND
     1    15    16   ar
     2    15    20   ar
     3    15     6    1
     4    16    17   ar
     5    16    21    2
     6    17    18   ar
     7    17    23    1
     8    18    19   ar
     9    18    22    2
    10    19    20   ar
    11     6     7    1
    12     6    11    1
    13     7     8    1
    14     7     9    1
    15     8    13    1
    16     9    10    1
    17     9    12    1
    18    10    11    1
    19    10     5    1
    20    12    14    1
    21     5     4    1
    22     4     1    1
    23     1     2    2
    24     1     3    1
    25     1    24    1
    26    24    25    1
    27    25    26    2
    28    25    27    1
    29    25    28    1
    30    28    29    1
    31    29    30    1
    32    29    37    1
    33    30    31    1
    34    30    34    1
    35    31    32    1
    36    31    35    1
    37    32    33    1
    38    32    36    1
    39    33    41    1
    40    33    37    1
    41    41    42    1
    42    34    38    1
    43    35    39    1
    44    36    40    1
    45    42    43    1
@<TRIPOS>MOLECULE
GDU
 43 45 0 0 0
SMALL
GASTEIGER

@<TRIPOS>ATOM
      1 P          22.3851   71.7968   -1.8061 P.3     1  UNL1        0.2189
      2 O          23.2464   72.9975   -1.8841 O.2     1  UNL1       -0.5170
      3 O          21.0063   72.1728   -1.0643 O.3     1  UNL1       -0.4371
      4 O          22.0683   71.2657   -3.2908 O.3     1  UNL1       -0.3112
      5 C          21.3110   70.0630   -3.1472 C.3     1  UNL1        0.1811
      6 C          18.1545   71.1861   -4.4521 C.3     1  UNL1        0.2383
      7 C          18.1168   69.6450   -4.6152 C.3     1  UNL1        0.1895
      8 O          16.7787   69.1536   -4.5096 O.3     1  UNL1       -0.3779
      9 C          18.9767   69.1702   -3.4150 C.3     1  UNL1        0.1713
     10 C          19.8229   70.4039   -3.0496 C.3     1  UNL1        0.1764
     11 O          19.4972   71.4431   -3.9888 O.3     1  UNL1       -0.3308
     12 O          18.1402   68.7872   -2.3216 O.3     1  UNL1       -0.3794
     13 H          16.8246   68.1936   -4.6198 H       1  UNL1        0.2106
     14 H          17.5947   68.0512   -2.6307 H       1  UNL1        0.2105
     15 N          17.9160   71.8487   -5.7354 N.ar    1  UNL1       -0.2551
     16 C          18.8957   71.8927   -6.6555 C.ar    1  UNL1        0.3323
     17 N          18.7012   72.4927   -7.8446 N.ar    1  UNL1       -0.2743
     18 C          17.5182   73.0705   -8.1293 C.ar    1  UNL1        0.2626
     19 C          16.4790   73.0370   -7.1675 C.ar    1  UNL1        0.0795
     20 C          16.6994   72.4250   -5.9845 C.ar    1  UNL1        0.0869
     21 O          19.9680   71.3754   -6.4132 O.2     1  UNL1       -0.2464
     22 O          17.3428   73.6179   -9.2035 O.2     1  UNL1       -0.2670
     23 H          19.4179   72.5112   -8.4985 H       1  UNL1        0.1734
     24 O          23.1442   70.6463   -0.9738 O.3     1  UNL1       -0.2703
     25 P          22.4293   70.5628    0.4656 P.3     1  UNL1        0.2208
     26 O          21.2728   69.6431    0.3892 O.2     1  UNL1       -0.5170
     27 O          23.4802   70.0132    1.5554 O.3     1  UNL1       -0.4371
     28 O          21.9236   72.0274    0.9006 O.3     1  UNL1       -0.2858
     29 C          22.5440   72.3260    2.1519 C.3     1  UNL1        0.2704
     30 C          21.4932   72.8599    3.1266 C.3     1  UNL1        0.1967
     31 C          20.8504   74.1151    2.5284 C.3     1  UNL1        0.1715
     32 C          21.9605   75.1055    2.1591 C.3     1  UNL1        0.1694
     33 C          22.9756   74.4012    1.2554 C.3     1  UNL1        0.1761
     34 O          20.4916   71.8643    3.3432 O.3     1  UNL1       -0.3775
     35 O          19.9734   74.7091    3.4878 O.3     1  UNL1       -0.3794
     36 O          22.6078   75.5627    3.3474 O.3     1  UNL1       -0.3794
     37 O          23.5622   73.3041    1.9541 O.3     1  UNL1       -0.3258
     38 H          20.9411   71.0920    3.7124 H       1  UNL1        0.2106
     39 H          19.3011   74.0490    3.6988 H       1  UNL1        0.2105
     40 H          21.9315   75.9929    3.8867 H       1  UNL1        0.2105
     41 C          24.0706   75.3915    0.8527 C.3     1  UNL1        0.1693
     42 O          24.7701   74.8892   -0.2873 O.3     1  UNL1       -0.3794
     43 H          25.4491   75.5412   -0.5087 H       1  UNL1        0.2105
@<TRIPOS>BOND
     1    15    16   ar
     2    15    20   ar
     3    15     6    1
     4    16    17   ar
     5    16    21    2
     6    17    18   ar
     7    17    23    1
     8    18    19   ar
     9    18    22    2
    10    19    20   ar
    11     6     7    1
    12     6    11    1
    13     7     8    1
    14     7     9    1
    15     8    13    1
    16     9    10    1
    17     9    12    1
    18    10    11    1
    19    10     5    1
    20    12    14    1
    21     5     4    1
    22     4     1    1
    23     1     2    2
    24     1     3    1
    25     1    24    1
    26    24    25    1
    27    25    26    2
    28    25    27    1
    29    25    28    1
    30    28    29    1
    31    29    30    1
    32    29    37    1
    33    30    31    1
    34    30    34    1
    35    31    32    1
    36    31    35    1
    37    32    33    1
    38    32    36    1
    39    33    41    1
    40    33    37    1
    41    41    42    1
    42    34    38    1
    43    35    39    1
    44    36    40    1
    45    42    43    1
@<TRIPOS>MOLECULE
GDU
 43 45 0 0 0
SMALL
GASTEIGER

@<TRIPOS>ATOM
      1 P          19.7466   72.2712   -3.3482 P.3     1  UNL1        0.2189
      2 O          19.9644   73.7330   -3.2754 O.2     1  UNL1       -0.5170
      3 O          20.8959   71.6020   -4.2560 O.3     1  UNL1       -0.4371
      4 O          19.8004   71.6459   -1.8673 O.3     1  UNL1       -0.3112
      5 C          20.1721   72.7052   -0.9841 C.3     1  UNL1        0.1811
      6 C          22.7068   72.4473    1.5529 C.3     1  UNL1        0.2383
      7 C          22.1995   70.9952    1.3607 C.3     1  UNL1        0.1895
      8 O          23.2435   70.0524    1.6148 O.3     1  UNL1       -0.3779
      9 C          21.7992   70.9866   -0.1377 C.3     1  UNL1        0.1713
     10 C          21.5978   72.4745   -0.4798 C.3     1  UNL1        0.1764
     11 O          21.8173   73.2272    0.7259 O.3     1  UNL1       -0.3308
     12 O          22.8447   70.4211   -0.9308 O.3     1  UNL1       -0.3794
     13 H          22.8642   69.1729    1.4788 H       1  UNL1        0.2106
     14 H          22.9630   69.5099   -0.6299 H       1  UNL1        0.2105
     15 N          22.5960   72.8532    2.9550 N.ar    1  UNL1       -0.2551
     16 C          21.4622   72.6041    3.6338 C.ar    1  UNL1        0.3323
     17 N          21.3359   72.9639    4.9247 N.ar    1  UNL1       -0.2743
     18 C          22.3457   73.5915    5.5576 C.ar    1  UNL1        0.2626
     19 C          23.5437   73.8656    4.8536 C.ar    1  UNL1        0.0795
     20 C          23.6455   73.4902    3.5608 C.ar    1  UNL1        0.0869
     21 O          20.5429   72.0383    3.0764 O.2     1  UNL1       -0.2464
     22 O          22.2305   73.9218    6.7248 O.2     1  UNL1       -0.2670
     23 H          20.5120   72.7723    5.4005 H       1  UNL1        0.1734
     24 O          18.3063   71.9763   -4.0047 O.3     1  UNL1       -0.2703
     25 P          18.3900   70.5164   -4.6768 P.3     1  UNL1        0.2208
     26 O          19.2184   69.6303   -3.8296 O.2     1  UNL1       -0.5170
     27 O          16.9076   69.9004   -4.8079 O.3     1  UNL1       -0.4371
     28 O          19.0518   70.6347   -6.1390 O.3     1  UNL1       -0.2858
     29 C          18.3886   71.7075   -6.8091 C.3     1  UNL1        0.2704
     30 C          17.7943   71.1974   -8.1228 C.3     1  UNL1        0.1967
     31 C          18.9204   70.6303   -8.9926 C.3     1  UNL1        0.1715
     32 C          20.0102   71.6980   -9.1409 C.3     1  UNL1        0.1694
     33 C          20.4382   72.1691   -7.7487 C.3     1  UNL1        0.1761
     34 O          16.8368   70.1730   -7.8490 O.3     1  UNL1       -0.3775
     35 O          18.4051   70.2848  -10.2800 O.3     1  UNL1       -0.3794
     36 O          19.4984   72.8026   -9.8879 O.3     1  UNL1       -0.3794
     37 O          19.3238   72.7507   -7.0737 O.3     1  UNL1       -0.3258
     38 H          16.1523   70.5718   -7.2947 H       1  UNL1        0.2106
     39 H          17.7173   69.6222  -10.1376 H       1  UNL1        0.2105
     40 H          19.2369   72.4589  -10.7521 H       1  UNL1        0.2105
     41 C          21.5507   73.2111   -7.8845 C.3     1  UNL1        0.1693
     42 O          22.2203   73.0318   -9.1337 O.3     1  UNL1       -0.3794
     43 H          22.9115   73.7066   -9.1801 H       1  UNL1        0.2105
@<TRIPOS>BOND
     1    15    16   ar
     2    15    20   ar
     3    15     6    1
     4    16    17   ar
     5    16    21    2
     6    17    18   ar
     7    17    23    1
     8    18    19   ar
     9    18    22    2
    10    19    20   ar
    11     6     7    1
    12     6    11    1
    13     7     8    1
    14     7     9    1
    15     8    13    1
    16     9    10    1
    17     9    12    1
    18    10    11    1
    19    10     5    1
    20    12    14    1
    21     5     4    1
    22     4     1    1
    23     1     2    2
    24     1     3    1
    25     1    24    1
    26    24    25    1
    27    25    26    2
    28    25    27    1
    29    25    28    1
    30    28    29    1
    31    29    30    1
    32    29    37    1
    33    30    31    1
    34    30    34    1
    35    31    32    1
    36    31    35    1
    37    32    33    1
    38    32    36    1
    39    33    41    1
    40    33    37    1
    41    41    42    1
    42    34    38    1
    43    35    39    1
    44    36    40    1
    45    42    43    1
@<TRIPOS>MOLECULE
GDU
 43 45 0 0 0
SMALL
GASTEIGER

@<TRIPOS>ATOM
      1 P          18.9381   71.7826   -2.5716 P.3     1  UNL1        0.2189
      2 O          18.2528   70.5612   -3.0489 O.2     1  UNL1       -0.5170
      3 O          17.9102   72.6720   -1.7082 O.3     1  UNL1       -0.4371
      4 O          20.1930   71.3705   -1.6538 O.3     1  UNL1       -0.3112
      5 C          20.5889   72.5445   -0.9429 C.3     1  UNL1        0.1811
      6 C          22.9510   72.3886    1.7633 C.3     1  UNL1        0.2383
      7 C          22.4498   70.9308    1.5999 C.3     1  UNL1        0.1895
      8 O          23.4700   69.9972    1.9616 O.3     1  UNL1       -0.3779
      9 C          22.1483   70.8594    0.0802 C.3     1  UNL1        0.1713
     10 C          21.9774   72.3319   -0.3370 C.3     1  UNL1        0.1764
     11 O          22.1216   73.1347    0.8475 O.3     1  UNL1       -0.3308
     12 O          23.2403   70.2581   -0.6181 O.3     1  UNL1       -0.3794
     13 H          23.0958   69.1137    1.8383 H       1  UNL1        0.2106
     14 H          23.3339   69.3603   -0.2717 H       1  UNL1        0.2105
     15 N          22.7511   72.8541    3.1367 N.ar    1  UNL1       -0.2551
     16 C          21.5739   72.6374    3.7495 C.ar    1  UNL1        0.3323
     17 N          21.3654   73.0521    5.0130 N.ar    1  UNL1       -0.2743
     18 C          22.3351   73.7032    5.6837 C.ar    1  UNL1        0.2626
     19 C          23.5783   73.9437    5.0488 C.ar    1  UNL1        0.0795
     20 C          23.7622   73.5133    3.7826 C.ar    1  UNL1        0.0869
     21 O          20.6898   72.0510    3.1574 O.2     1  UNL1       -0.2464
     22 O          22.1457   74.0832    6.8258 O.2     1  UNL1       -0.2670
     23 H          20.5111   72.8834    5.4413 H       1  UNL1        0.1734
     24 O          19.4535   72.6364   -3.8357 O.3     1  UNL1       -0.2703
     25 P          20.4372   71.6790   -4.6756 P.3     1  UNL1        0.2208
     26 O          21.8418   72.0612   -4.4110 O.2     1  UNL1       -0.5170
     27 O          20.2051   70.1485   -4.2306 O.3     1  UNL1       -0.4371
     28 O          20.1251   71.8328   -6.2469 O.3     1  UNL1       -0.2858
     29 C          19.0996   70.8895   -6.5606 C.3     1  UNL1        0.2704
     30 C          19.0682   70.6553   -8.0717 C.3     1  UNL1        0.1967
     31 C          18.8099   71.9899   -8.7779 C.3     1  UNL1        0.1715
     32 C          17.5421   72.6186   -8.1888 C.3     1  UNL1        0.1694
     33 C          17.6903   72.7058   -6.6678 C.3     1  UNL1        0.1761
     34 O          20.3223   70.1207   -8.4993 O.3     1  UNL1       -0.3775
     35 O          18.6315   71.7656  -10.1780 O.3     1  UNL1       -0.3794
     36 O          16.4110   71.8111   -8.5180 O.3     1  UNL1       -0.3794
     37 O          17.8407   71.3957   -6.1229 O.3     1  UNL1       -0.3258
     38 H          20.4464   69.2871   -8.0254 H       1  UNL1        0.2106
     39 H          19.4454   71.3599  -10.5024 H       1  UNL1        0.2105
     40 H          16.3606   71.7798   -9.4822 H       1  UNL1        0.2105
     41 C          16.4435   73.3639   -6.0725 C.3     1  UNL1        0.1693
     42 O          15.5503   72.3526   -5.6029 O.3     1  UNL1       -0.3794
     43 H          14.7801   72.8079   -5.2358 H       1  UNL1        0.2105
@<TRIPOS>BOND
     1    15    16   ar
     2    15    20   ar
     3    15     6    1
     4    16    17   ar
     5    16    21    2
     6    17    18   ar
     7    17    23    1
     8    18    19   ar
     9    18    22    2
    10    19    20   ar
    11     6     7    1
    12     6    11    1
    13     7     8    1
    14     7     9    1
    15     8    13    1
    16     9    10    1
    17     9    12    1
    18    10    11    1
    19    10     5    1
    20    12    14    1
    21     5     4    1
    22     4     1    1
    23     1     2    2
    24     1     3    1
    25     1    24    1
    26    24    25    1
    27    25    26    2
    28    25    27    1
    29    25    28    1
    30    28    29    1
    31    29    30    1
    32    29    37    1
    33    30    31    1
    34    30    34    1
    35    31    32    1
    36    31    35    1
    37    32    33    1
    38    32    36    1
    39    33    41    1
    40    33    37    1
    41    41    42    1
    42    34    38    1
    43    35    39    1
    44    36    40    1
    45    42    43    1
@<TRIPOS>MOLECULE
GDU
 43 45 0 0 0
SMALL
GASTEIGER

@<TRIPOS>ATOM
      1 P          22.9394   73.4252   -4.6200 P.3     1  UNL1        0.2189
      2 O          24.2184   73.0641   -3.9695 O.2     1  UNL1       -0.5170
      3 O          23.0190   74.9418   -5.1552 O.3     1  UNL1       -0.4371
      4 O          22.6670   72.4334   -5.8565 O.3     1  UNL1       -0.3112
      5 C          21.8027   73.1252   -6.7592 C.3     1  UNL1        0.1811
      6 C          18.4589   72.5054   -7.9266 C.3     1  UNL1        0.2383
      7 C          19.3463   72.3520   -9.1883 C.3     1  UNL1        0.1895
      8 O          18.7821   71.4028  -10.0961 O.3     1  UNL1       -0.3779
      9 C          20.6747   71.8220   -8.5887 C.3     1  UNL1        0.1713
     10 C          20.6078   72.2355   -7.1068 C.3     1  UNL1        0.1764
     11 O          19.3836   72.9662   -6.9185 O.3     1  UNL1       -0.3308
     12 O          20.7482   70.4006   -8.7156 O.3     1  UNL1       -0.3794
     13 H          19.3791   71.3546  -10.8558 H       1  UNL1        0.2106
     14 H          20.7268   70.2024   -9.6617 H       1  UNL1        0.2105
     15 N          17.4053   73.4964   -8.1517 N.ar    1  UNL1       -0.2551
     16 C          16.1156   73.1169   -8.1225 C.ar    1  UNL1        0.3323
     17 N          15.1276   74.0089   -8.3228 N.ar    1  UNL1       -0.2743
     18 C          15.4176   75.3014   -8.5669 C.ar    1  UNL1        0.2626
     19 C          16.7718   75.7145   -8.6063 C.ar    1  UNL1        0.0795
     20 C          17.7429   74.8001   -8.3978 C.ar    1  UNL1        0.0869
     21 O          15.8386   71.9545   -7.9030 O.2     1  UNL1       -0.2464
     22 O          14.5241   76.1086   -8.7531 O.2     1  UNL1       -0.2670
     23 H          14.2022   73.7182   -8.2940 H       1  UNL1        0.1734
     24 O          21.7406   73.2964   -3.5529 O.3     1  UNL1       -0.2703
     25 P          21.7528   71.7785   -3.0182 P.3     1  UNL1        0.2208
     26 O          20.7786   70.9760   -3.7901 O.2     1  UNL1       -0.5170
     27 O          23.2268   71.1563   -3.2040 O.3     1  UNL1       -0.4371
     28 O          21.3541   71.7543   -1.4592 O.3     1  UNL1       -0.2858
     29 C          22.5709   71.6326   -0.7215 C.3     1  UNL1        0.2704
     30 C          22.2670   71.0908    0.6761 C.3     1  UNL1        0.1967
     31 C          21.2999   72.0464    1.3819 C.3     1  UNL1        0.1715
     32 C          21.8929   73.4594    1.3448 C.3     1  UNL1        0.1694
     33 C          22.2236   73.8225   -0.1050 C.3     1  UNL1        0.1761
     34 O          21.6706   69.7970    0.5687 O.3     1  UNL1       -0.3775
     35 O          21.1214   71.6335    2.7384 O.3     1  UNL1       -0.3794
     36 O          23.0816   73.4996    2.1356 O.3     1  UNL1       -0.3794
     37 O          23.1932   72.9113   -0.6202 O.3     1  UNL1       -0.3258
     38 H          22.3096   69.2322    0.1132 H       1  UNL1        0.2106
     39 H          20.7594   70.7387    2.7133 H       1  UNL1        0.2105
     40 H          22.8270   73.2594    3.0360 H       1  UNL1        0.2105
     41 C          22.7848   75.2453   -0.1573 C.3     1  UNL1        0.1693
     42 O          22.2652   76.0019    0.9375 O.3     1  UNL1       -0.3794
     43 H          22.6428   76.8896    0.8685 H       1  UNL1        0.2105
@<TRIPOS>BOND
     1    15    16   ar
     2    15    20   ar
     3    15     6    1
     4    16    17   ar
     5    16    21    2
     6    17    18   ar
     7    17    23    1
     8    18    19   ar
     9    18    22    2
    10    19    20   ar
    11     6     7    1
    12     6    11    1
    13     7     8    1
    14     7     9    1
    15     8    13    1
    16     9    10    1
    17     9    12    1
    18    10    11    1
    19    10     5    1
    20    12    14    1
    21     5     4    1
    22     4     1    1
    23     1     2    2
    24     1     3    1
    25     1    24    1
    26    24    25    1
    27    25    26    2
    28    25    27    1
    29    25    28    1
    30    28    29    1
    31    29    30    1
    32    29    37    1
    33    30    31    1
    34    30    34    1
    35    31    32    1
    36    31    35    1
    37    32    33    1
    38    32    36    1
    39    33    41    1
    40    33    37    1
    41    41    42    1
    42    34    38    1
    43    35    39    1
    44    36    40    1
    45    42    43    1
@<TRIPOS>MOLECULE
GDU
 43 45 0 0 0
SMALL
GASTEIGER

@<TRIPOS>ATOM
      1 P          22.1098   71.6226   -1.5200 P.3     1  UNL1        0.2189
      2 O          22.2306   73.0606   -1.8470 O.2     1  UNL1       -0.5170
      3 O          20.6314   71.3227   -0.9567 O.3     1  UNL1       -0.4371
      4 O          22.3672   70.7472   -2.8445 O.3     1  UNL1       -0.3112
      5 C          21.1704   70.0070   -3.0903 C.3     1  UNL1        0.1811
      6 C          19.9918   72.1060   -5.7611 C.3     1  UNL1        0.2383
      7 C          19.4662   70.6917   -6.1168 C.3     1  UNL1        0.1895
      8 O          18.2313   70.7717   -6.8323 O.3     1  UNL1       -0.3779
      9 C          19.2537   70.0622   -4.7154 C.3     1  UNL1        0.1713
     10 C          20.1469   70.9057   -3.7868 C.3     1  UNL1        0.1764
     11 O          20.8246   71.8750   -4.6050 O.3     1  UNL1       -0.3308
     12 O          17.8822   70.1606   -4.3263 O.3     1  UNL1       -0.3794
     13 H          17.9599   69.8629   -7.0226 H       1  UNL1        0.2106
     14 H          17.3699   69.6627   -4.9777 H       1  UNL1        0.2105
     15 N          20.7813   72.6575   -6.8635 N.ar    1  UNL1       -0.2551
     16 C          22.0919   72.9023   -6.6880 C.ar    1  UNL1        0.3323
     17 N          22.8411   73.4059   -7.6865 N.ar    1  UNL1       -0.2743
     18 C          22.2841   73.6834   -8.8811 C.ar    1  UNL1        0.2626
     19 C          20.9035   73.4361   -9.0786 C.ar    1  UNL1        0.0795
     20 C          20.1763   72.9267   -8.0617 C.ar    1  UNL1        0.0869
     21 O          22.6084   72.6566   -5.6161 O.2     1  UNL1       -0.2464
     22 O          22.9604   74.1437   -9.7840 O.2     1  UNL1       -0.2670
     23 H          23.7864   73.5723   -7.5436 H       1  UNL1        0.1734
     24 O          23.1986   71.2348   -0.3990 O.3     1  UNL1       -0.2703
     25 P          22.3961   70.5382    0.8096 P.3     1  UNL1        0.2208
     26 O          21.5856   69.4183    0.2825 O.2     1  UNL1       -0.5170
     27 O          23.4442   69.9767    1.8961 O.3     1  UNL1       -0.4371
     28 O          21.4296   71.6196    1.5072 O.3     1  UNL1       -0.2858
     29 C          22.2725   72.6138    2.0912 C.3     1  UNL1        0.2704
     30 C          21.9124   72.7829    3.5681 C.3     1  UNL1        0.1967
     31 C          20.4397   73.1894    3.6788 C.3     1  UNL1        0.1715
     32 C          20.2058   74.4266    2.8045 C.3     1  UNL1        0.1694
     33 C          20.6939   74.1318    1.3840 C.3     1  UNL1        0.1761
     34 O          22.1229   71.5488    4.2564 O.3     1  UNL1       -0.3775
     35 O          20.1267   73.4940    5.0396 O.3     1  UNL1       -0.3794
     36 O          20.9278   75.5353    3.3425 O.3     1  UNL1       -0.3794
     37 O          22.0925   73.8501    1.4044 O.3     1  UNL1       -0.3258
     38 H          23.0588   71.3286    4.1544 H       1  UNL1        0.2106
     39 H          20.2994   72.6943    5.5523 H       1  UNL1        0.2105
     40 H          20.5923   75.6804    4.2368 H       1  UNL1        0.2105
     41 C          20.4334   75.3492    0.4941 C.3     1  UNL1        0.1693
     42 O          20.2860   74.9242   -0.8619 O.3     1  UNL1       -0.3794
     43 H          20.1230   75.7190   -1.3881 H       1  UNL1        0.2105
@<TRIPOS>BOND
     1    15    16   ar
     2    15    20   ar
     3    15     6    1
     4    16    17   ar
     5    16    21    2
     6    17    18   ar
     7    17    23    1
     8    18    19   ar
     9    18    22    2
    10    19    20   ar
    11     6     7    1
    12     6    11    1
    13     7     8    1
    14     7     9    1
    15     8    13    1
    16     9    10    1
    17     9    12    1
    18    10    11    1
    19    10     5    1
    20    12    14    1
    21     5     4    1
    22     4     1    1
    23     1     2    2
    24     1     3    1
    25     1    24    1
    26    24    25    1
    27    25    26    2
    28    25    27    1
    29    25    28    1
    30    28    29    1
    31    29    30    1
    32    29    37    1
    33    30    31    1
    34    30    34    1
    35    31    32    1
    36    31    35    1
    37    32    33    1
    38    32    36    1
    39    33    41    1
    40    33    37    1
    41    41    42    1
    42    34    38    1
    43    35    39    1
    44    36    40    1
    45    42    43    1
@<TRIPOS>MOLECULE
GDU
 43 45 0 0 0
SMALL
GASTEIGER

@<TRIPOS>ATOM
      1 P          20.5794   72.5571   -2.5765 P.3     1  UNL1        0.2189
      2 O          20.6650   73.9927   -2.2284 O.2     1  UNL1       -0.5170
      3 O          19.3901   71.8709   -1.7352 O.3     1  UNL1       -0.4371
      4 O          20.2822   72.4026   -4.1496 O.3     1  UNL1       -0.3112
      5 C          19.7580   71.0882   -4.3446 C.3     1  UNL1        0.1811
      6 C          16.8292   71.8722   -6.2771 C.3     1  UNL1        0.2383
      7 C          17.1233   70.3853   -6.6021 C.3     1  UNL1        0.1895
      8 O          15.9149   69.6769   -6.8869 O.3     1  UNL1       -0.3779
      9 C          17.7601   69.8836   -5.2800 C.3     1  UNL1        0.1713
     10 C          18.2501   71.1697   -4.5890 C.3     1  UNL1        0.1764
     11 O          17.9565   72.2695   -5.4678 O.3     1  UNL1       -0.3308
     12 O          16.7842   69.2169   -4.4769 O.3     1  UNL1       -0.3794
     13 H          16.1663   68.7630   -7.0801 H       1  UNL1        0.2106
     14 H          16.4739   68.4565   -4.9870 H       1  UNL1        0.2105
     15 N          16.7690   72.6685   -7.5040 N.ar    1  UNL1       -0.2551
     16 C          17.8221   72.6858   -8.3401 C.ar    1  UNL1        0.3323
     17 N          17.7912   73.4068   -9.4763 N.ar    1  UNL1       -0.2743
     18 C          16.7020   74.1343   -9.7906 C.ar    1  UNL1        0.2626
     19 C          15.5875   74.1301   -8.9165 C.ar    1  UNL1        0.0795
     20 C          15.6434   73.3949   -7.7856 C.ar    1  UNL1        0.0869
     21 O          18.8114   72.0342   -8.0702 O.2     1  UNL1       -0.2464
     22 O          16.6749   74.7910  -10.8165 O.2     1  UNL1       -0.2670
     23 H          18.5586   73.4044  -10.0703 H       1  UNL1        0.1734
     24 O          21.9735   71.8351   -2.2190 O.3     1  UNL1       -0.2703
     25 P          21.6854   70.8533   -0.9768 P.3     1  UNL1        0.2208
     26 O          20.6284   69.8866   -1.3472 O.2     1  UNL1       -0.5170
     27 O          23.0330   70.0559   -0.5996 O.3     1  UNL1       -0.4371
     28 O          21.2024   71.7183    0.2915 O.3     1  UNL1       -0.2858
     29 C          22.3364   72.4588    0.7449 C.3     1  UNL1        0.2704
     30 C          22.6203   72.1109    2.2070 C.3     1  UNL1        0.1967
     31 C          21.3844   72.4452    3.0481 C.3     1  UNL1        0.1715
     32 C          20.9954   73.9050    2.7886 C.3     1  UNL1        0.1694
     33 C          20.8327   74.1164    1.2814 C.3     1  UNL1        0.1761
     34 O          22.9145   70.7173    2.3189 O.3     1  UNL1       -0.3775
     35 O          21.6836   72.2646    4.4338 O.3     1  UNL1       -0.3794
     36 O          22.0172   74.7681    3.2895 O.3     1  UNL1       -0.3794
     37 O          22.0706   73.8541    0.6221 O.3     1  UNL1       -0.3258
     38 H          23.6926   70.5515    1.7694 H       1  UNL1        0.2106
     39 H          21.9337   71.3390    4.5478 H       1  UNL1        0.2105
     40 H          22.0884   74.5967    4.2376 H       1  UNL1        0.2105
     41 C          20.4106   75.5628    1.0136 C.3     1  UNL1        0.1693
     42 O          21.5527   76.3268    0.6227 O.3     1  UNL1       -0.3794
     43 H          21.2444   77.2294    0.4631 H       1  UNL1        0.2105
@<TRIPOS>BOND
     1    15    16   ar
     2    15    20   ar
     3    15     6    1
     4    16    17   ar
     5    16    21    2
     6    17    18   ar
     7    17    23    1
     8    18    19   ar
     9    18    22    2
    10    19    20   ar
    11     6     7    1
    12     6    11    1
    13     7     8    1
    14     7     9    1
    15     8    13    1
    16     9    10    1
    17     9    12    1
    18    10    11    1
    19    10     5    1
    20    12    14    1
    21     5     4    1
    22     4     1    1
    23     1     2    2
    24     1     3    1
    25     1    24    1
    26    24    25    1
    27    25    26    2
    28    25    27    1
    29    25    28    1
    30    28    29    1
    31    29    30    1
    32    29    37    1
    33    30    31    1
    34    30    34    1
    35    31    32    1
    36    31    35    1
    37    32    33    1
    38    32    36    1
    39    33    41    1
    40    33    37    1
    41    41    42    1
    42    34    38    1
    43    35    39    1
    44    36    40    1
    45    42    43    1
@<TRIPOS>MOLECULE
GDU
 43 45 0 0 0
SMALL
GASTEIGER

@<TRIPOS>ATOM
      1 P          21.7916   70.8025   -2.8786 P.3     1  UNL1        0.2189
      2 O          23.2450   70.8510   -3.1519 O.2     1  UNL1       -0.5170
      3 O          21.4097   69.3658   -2.2596 O.3     1  UNL1       -0.4371
      4 O          21.4034   71.9588   -1.8303 O.3     1  UNL1       -0.3112
      5 C          22.6258   72.5760   -1.4236 C.3     1  UNL1        0.1811
      6 C          22.5672   73.3301    2.0914 C.3     1  UNL1        0.2383
      7 C          21.2469   72.5587    1.8369 C.3     1  UNL1        0.1895
      8 O          20.8586   71.8164    2.9951 O.3     1  UNL1       -0.3779
      9 C          21.6445   71.6077    0.6781 C.3     1  UNL1        0.1713
     10 C          22.8837   72.2758    0.0541 C.3     1  UNL1        0.1764
     11 O          23.1173   73.5021    0.7681 O.3     1  UNL1       -0.3308
     12 O          21.9684   70.3113    1.1845 O.3     1  UNL1       -0.3794
     13 H          20.0342   71.3621    2.7717 H       1  UNL1        0.2106
     14 H          21.1716   69.9711    1.6136 H       1  UNL1        0.2105
     15 N          22.2972   74.6287    2.7106 N.ar    1  UNL1       -0.2551
     16 C          21.6929   75.5950    1.9970 C.ar    1  UNL1        0.3323
     17 N          21.4300   76.7967    2.5436 N.ar    1  UNL1       -0.2743
     18 C          21.7792   77.0548    3.8186 C.ar    1  UNL1        0.2626
     19 C          22.4217   76.0483    4.5806 C.ar    1  UNL1        0.0795
     20 C          22.6696   74.8506    4.0092 C.ar    1  UNL1        0.0869
     21 O          21.3715   75.3768    0.8458 O.2     1  UNL1       -0.2464
     22 O          21.5460   78.1437    4.3128 O.2     1  UNL1       -0.2670
     23 H          20.9893   77.4810    2.0152 H       1  UNL1        0.1734
     24 O          20.9806   71.0265   -4.2514 O.3     1  UNL1       -0.2703
     25 P          19.5393   70.3365   -4.0598 P.3     1  UNL1        0.2208
     26 O          19.7165   68.8953   -3.7757 O.2     1  UNL1       -0.5170
     27 O          18.7696   71.0349   -2.8294 O.3     1  UNL1       -0.4371
     28 O          18.6737   70.5169   -5.4045 O.3     1  UNL1       -0.2858
     29 C          19.0818   71.7501   -5.9983 C.3     1  UNL1        0.2704
     30 C          17.8606   72.6503   -6.1924 C.3     1  UNL1        0.1967
     31 C          16.8465   71.9293   -7.0858 C.3     1  UNL1        0.1715
     32 C          17.5507   71.4979   -8.3772 C.3     1  UNL1        0.1694
     33 C          18.7952   70.6827   -8.0170 C.3     1  UNL1        0.1761
     34 O          17.2675   72.9325   -4.9236 O.3     1  UNL1       -0.3775
     35 O          15.7671   72.8128   -7.3968 O.3     1  UNL1       -0.3794
     36 O          17.9309   72.6548   -9.1235 O.3     1  UNL1       -0.3794
     37 O          19.6956   71.4886   -7.2583 O.3     1  UNL1       -0.3258
     38 H          17.9419   73.3785   -4.3934 H       1  UNL1        0.2106
     39 H          15.3627   73.0668   -6.5576 H       1  UNL1        0.2105
     40 H          17.1189   73.1389   -9.3224 H       1  UNL1        0.2105
     41 C          19.4872   70.2177   -9.3003 C.3     1  UNL1        0.1693
     42 O          18.5481   70.2262  -10.3769 O.3     1  UNL1       -0.3794
     43 H          19.0229   69.9284  -11.1649 H       1  UNL1        0.2105
@<TRIPOS>BOND
     1    15    16   ar
     2    15    20   ar
     3    15     6    1
     4    16    17   ar
     5    16    21    2
     6    17    18   ar
     7    17    23    1
     8    18    19   ar
     9    18    22    2
    10    19    20   ar
    11     6     7    1
    12     6    11    1
    13     7     8    1
    14     7     9    1
    15     8    13    1
    16     9    10    1
    17     9    12    1
    18    10    11    1
    19    10     5    1
    20    12    14    1
    21     5     4    1
    22     4     1    1
    23     1     2    2
    24     1     3    1
    25     1    24    1
    26    24    25    1
    27    25    26    2
    28    25    27    1
    29    25    28    1
    30    28    29    1
    31    29    30    1
    32    29    37    1
    33    30    31    1
    34    30    34    1
    35    31    32    1
    36    31    35    1
    37    32    33    1
    38    32    36    1
    39    33    41    1
    40    33    37    1
    41    41    42    1
    42    34    38    1
    43    35    39    1
    44    36    40    1
    45    42    43    1
