@<TRIPOS>MOLECULE
UD2
 46 48 0 0 0
SMALL
GASTEIGER

@<TRIPOS>ATOM
      1 P          21.3393   70.7172   -2.6236 P.3     1  UNL1        0.2189
      2 O          20.8682   69.1935   -2.8417 O.3     1  UNL1       -0.4371
      3 O          21.7471   71.2987   -3.9215 O.2     1  UNL1       -0.5170
      4 O          20.1202   71.5732   -2.0113 O.3     1  UNL1       -0.3112
      5 C          19.6200   72.7623   -2.6255 C.3     1  UNL1        0.1811
      6 C          17.6456   71.5254   -5.3657 C.3     1  UNL1        0.2383
      7 C          17.7748   70.3182   -4.4022 C.3     1  UNL1        0.1895
      8 O          16.6221   69.4774   -4.4807 O.3     1  UNL1       -0.3779
      9 C          17.8593   71.0122   -3.0207 C.3     1  UNL1        0.1713
     10 C          18.3074   72.4494   -3.3481 C.3     1  UNL1        0.1764
     11 O          18.5021   72.5236   -4.7694 O.3     1  UNL1       -0.3308
     12 O          16.5791   71.0191   -2.3868 O.3     1  UNL1       -0.3794
     13 H          16.6558   68.7078   -3.8966 H       1  UNL1        0.2106
     14 H          16.2217   70.1384   -2.2108 H       1  UNL1        0.2105
     15 N          18.1213   71.1700   -6.7045 N.ar    1  UNL1       -0.2551
     16 C          17.2455   70.7417   -7.6310 C.ar    1  UNL1        0.3323
     17 N          17.6548   70.4081   -8.8693 N.ar    1  UNL1       -0.2743
     18 C          18.9585   70.5013   -9.2014 C.ar    1  UNL1        0.2626
     19 C          19.8911   70.9517   -8.2363 C.ar    1  UNL1        0.0795
     20 C          19.4523   71.2834   -7.0039 C.ar    1  UNL1        0.0869
     21 O          16.0670   70.6529   -7.3456 O.2     1  UNL1       -0.2464
     22 O          19.3301   70.2001  -10.3220 O.2     1  UNL1       -0.2670
     23 H          17.0103   70.0999   -9.5249 H       1  UNL1        0.1734
     24 O          22.5850   70.7534   -1.6037 O.3     1  UNL1       -0.2703
     25 P          22.7360   70.5355   -0.0154 P.3     1  UNL1        0.2208
     26 O          21.4419   69.7573    0.5444 O.3     1  UNL1       -0.4371
     27 O          23.9494   69.7353    0.2598 O.2     1  UNL1       -0.5170
     28 O          22.8593   71.9661    0.7132 O.3     1  UNL1       -0.2865
     29 C          21.7246   72.7476    1.0911 C.3     1  UNL1        0.2611
     30 C          21.8708   74.1649    0.5320 C.3     1  UNL1        0.1582
     31 C          23.1122   74.8206    1.1448 C.3     1  UNL1        0.1625
     32 C          22.9819   74.8091    2.6703 C.3     1  UNL1        0.1686
     33 C          22.7929   73.3665    3.1471 C.3     1  UNL1        0.1760
     34 O          23.2154   76.1700    0.6845 O.3     1  UNL1       -0.3801
     35 O          21.8527   75.5931    3.0593 O.3     1  UNL1       -0.3794
     36 O          21.6399   72.8054    2.5165 O.3     1  UNL1       -0.3263
     37 H          23.9813   76.6465    1.0331 H       1  UNL1        0.2105
     38 H          21.7088   75.6296    4.0153 H       1  UNL1        0.2105
     39 C          23.2466   74.0968   -1.4781 C.2     1  UNL1        0.2231
     40 C          23.3987   74.0335   -2.9753 C.3     1  UNL1        0.0946
     41 N          22.0180   74.1036   -0.9244 N.am    1  UNL1       -0.2994
     42 O          24.2306   74.1418   -0.7696 O.2     1  UNL1       -0.2751
     43 H          21.2310   74.0686   -1.4906 H       1  UNL1        0.1496
     44 C          22.6022   73.3522    4.6650 C.3     1  UNL1        0.1693
     45 O          21.8953   72.1700    5.0458 O.3     1  UNL1       -0.3794
     46 H          21.7383   72.0942    5.9970 H       1  UNL1        0.2105
@<TRIPOS>BOND
     1    29    30    1
     2    30    41    1
     3    30    31    1
     4    31    34    1
     5    31    32    1
     6    32    35    1
     7    32    33    1
     8    33    36    1
     9    33    44    1
    10    39    40    1
    11    39    42    2
    12    39    41   am
    13    41    43    1
    14    29    28    1
    15    34    37    1
    16    35    38    1
    17    29    36    1
    18    44    45    1
    19    45    46    1
    20    15     6    1
    21    15    16   ar
    22    16    21    2
    23    16    17   ar
    24    17    23    1
    25    17    18   ar
    26    18    19   ar
    27    19    20   ar
    28    15    20   ar
    29    18    22    2
    30     6     7    1
    31     6    11    1
    32     7     9    1
    33     7     8    1
    34     8    13    1
    35     9    10    1
    36     9    12    1
    37    10     5    1
    38    10    11    1
    39    12    14    1
    40     5     4    1
    41     4     1    1
    42     1     2    1
    43     1    24    1
    44     1     3    2
    45    24    25    1
    46    28    25    1
    47    25    26    1
    48    25    27    2
@<TRIPOS>MOLECULE
UD2
 46 48 0 0 0
SMALL
GASTEIGER

@<TRIPOS>ATOM
      1 P          22.8925   72.0724   -3.3582 P.3     1  UNL1        0.2189
      2 O          23.5085   70.5876   -3.2739 O.3     1  UNL1       -0.4371
      3 O          23.5733   72.8294   -4.4316 O.2     1  UNL1       -0.5170
      4 O          21.3172   71.9822   -3.6811 O.3     1  UNL1       -0.3112
      5 C          20.3141   71.9828   -2.6637 C.3     1  UNL1        0.1811
      6 C          18.0109   71.3196   -5.3455 C.3     1  UNL1        0.2383
      7 C          17.9969   70.0266   -4.4910 C.3     1  UNL1        0.1895
      8 O          16.7201   69.3880   -4.5532 O.3     1  UNL1       -0.3779
      9 C          18.2723   70.5736   -3.0689 C.3     1  UNL1        0.1713
     10 C          18.9288   71.9456   -3.3137 C.3     1  UNL1        0.1764
     11 O          19.0512   72.1138   -4.7351 O.3     1  UNL1       -0.3308
     12 O          17.0487   70.7257   -2.3473 O.3     1  UNL1       -0.3794
     13 H          16.6616   68.5740   -4.0350 H       1  UNL1        0.2106
     14 H          16.5635   69.9001   -2.2159 H       1  UNL1        0.2105
     15 N          18.3449   71.0138   -6.7383 N.ar    1  UNL1       -0.2551
     16 C          17.3606   70.7648   -7.6204 C.ar    1  UNL1        0.3323
     17 N          17.6385   70.4808   -8.9066 N.ar    1  UNL1       -0.2743
     18 C          18.9175   70.4435   -9.3324 C.ar    1  UNL1        0.2626
     19 C          19.9635   70.7047   -8.4149 C.ar    1  UNL1        0.0795
     20 C          19.6557   70.9908   -7.1324 C.ar    1  UNL1        0.0869
     21 O          16.2028   70.7952   -7.2505 O.2     1  UNL1       -0.2464
     22 O          19.1703   70.1870  -10.4964 O.2     1  UNL1       -0.2670
     23 H          16.9168   70.3026   -9.5292 H       1  UNL1        0.1734
     24 O          23.1088   72.8242   -1.9506 O.3     1  UNL1       -0.2703
     25 P          22.9986   74.3584   -1.4742 P.3     1  UNL1        0.2208
     26 O          24.4601   75.0346   -1.5016 O.3     1  UNL1       -0.4371
     27 O          22.0976   75.0953   -2.3871 O.2     1  UNL1       -0.5170
     28 O          22.4091   74.4142    0.0232 O.3     1  UNL1       -0.2865
     29 C          21.2094   73.7433    0.4129 C.3     1  UNL1        0.2611
     30 C          20.7360   74.2859    1.7636 C.3     1  UNL1        0.1582
     31 C          21.8004   73.9895    2.8246 C.3     1  UNL1        0.1625
     32 C          22.0605   72.4811    2.8639 C.3     1  UNL1        0.1686
     33 C          22.4830   72.0081    1.4704 C.3     1  UNL1        0.1760
     34 O          21.3346   74.4273    4.1031 O.3     1  UNL1       -0.3801
     35 O          20.8677   71.8008    3.2584 O.3     1  UNL1       -0.3794
     36 O          21.4634   72.3416    0.5264 O.3     1  UNL1       -0.3263
     37 H          21.9602   74.2711    4.8238 H       1  UNL1        0.2105
     38 H          20.9595   70.8388    3.3040 H       1  UNL1        0.2105
     39 C          19.2836   76.2355    1.5987 C.2     1  UNL1        0.2231
     40 C          19.0734   77.7235    1.4979 C.3     1  UNL1        0.0946
     41 N          20.5324   75.7334    1.6653 N.am    1  UNL1       -0.2994
     42 O          18.3282   75.4878    1.6200 O.2     1  UNL1       -0.2751
     43 H          21.2965   76.3307    1.6472 H       1  UNL1        0.1496
     44 C          22.6871   70.4920    1.4869 C.3     1  UNL1        0.1693
     45 O          21.6071   69.8577    0.7986 O.3     1  UNL1       -0.3794
     46 H          21.6708   68.8933    0.7697 H       1  UNL1        0.2105
@<TRIPOS>BOND
     1    29    30    1
     2    30    41    1
     3    30    31    1
     4    31    34    1
     5    31    32    1
     6    32    35    1
     7    32    33    1
     8    33    36    1
     9    33    44    1
    10    39    40    1
    11    39    42    2
    12    39    41   am
    13    41    43    1
    14    29    28    1
    15    34    37    1
    16    35    38    1
    17    29    36    1
    18    44    45    1
    19    45    46    1
    20    15     6    1
    21    15    16   ar
    22    16    21    2
    23    16    17   ar
    24    17    23    1
    25    17    18   ar
    26    18    19   ar
    27    19    20   ar
    28    15    20   ar
    29    18    22    2
    30     6     7    1
    31     6    11    1
    32     7     9    1
    33     7     8    1
    34     8    13    1
    35     9    10    1
    36     9    12    1
    37    10     5    1
    38    10    11    1
    39    12    14    1
    40     5     4    1
    41     4     1    1
    42     1     2    1
    43     1    24    1
    44     1     3    2
    45    24    25    1
    46    28    25    1
    47    25    26    1
    48    25    27    2
@<TRIPOS>MOLECULE
UD2
 46 48 0 0 0
SMALL
GASTEIGER

@<TRIPOS>ATOM
      1 P          21.7811   70.6332   -0.1317 P.3     1  UNL1        0.2189
      2 O          21.9272   69.1937    0.5738 O.3     1  UNL1       -0.4371
      3 O          23.0768   71.0243   -0.7291 O.2     1  UNL1       -0.5170
      4 O          20.6602   70.5540   -1.2854 O.3     1  UNL1       -0.3112
      5 C          20.7569   71.2771   -2.5139 C.3     1  UNL1        0.1811
      6 C          18.2606   71.1931   -5.1019 C.3     1  UNL1        0.2383
      7 C          18.0863   69.8499   -4.3486 C.3     1  UNL1        0.1895
      8 O          16.7249   69.4172   -4.3858 O.3     1  UNL1       -0.3779
      9 C          18.5063   70.2285   -2.9072 C.3     1  UNL1        0.1713
     10 C          19.3545   71.5023   -3.0845 C.3     1  UNL1        0.1764
     11 O          19.4372   71.7686   -4.4936 O.3     1  UNL1       -0.3308
     12 O          17.3546   70.5013   -2.1073 O.3     1  UNL1       -0.3794
     13 H          16.5652   68.5807   -3.9283 H       1  UNL1        0.2106
     14 H          16.7544   69.7496   -2.0112 H       1  UNL1        0.2105
     15 N          18.4804   70.9584   -6.5308 N.ar    1  UNL1       -0.2551
     16 C          17.4261   70.8603   -7.3599 C.ar    1  UNL1        0.3323
     17 N          17.5985   70.6446   -8.6775 N.ar    1  UNL1       -0.2743
     18 C          18.8406   70.5248   -9.1887 C.ar    1  UNL1        0.2626
     19 C          19.9596   70.6270   -8.3276 C.ar    1  UNL1        0.0795
     20 C          19.7574   70.8477   -7.0116 C.ar    1  UNL1        0.0869
     21 O          16.3004   70.9665   -6.9128 O.2     1  UNL1       -0.2464
     22 O          18.9981   70.3299  -10.3811 O.2     1  UNL1       -0.2670
     23 H          16.8273   70.5752   -9.2611 H       1  UNL1        0.1734
     24 O          21.3438   71.7273    0.9661 O.3     1  UNL1       -0.2703
     25 P          21.3391   73.3372    0.9996 P.3     1  UNL1        0.2208
     26 O          22.5639   73.8955    0.1154 O.3     1  UNL1       -0.4371
     27 O          20.0625   73.8386    0.4453 O.2     1  UNL1       -0.5170
     28 O          21.5000   73.8427    2.5199 O.3     1  UNL1       -0.2865
     29 C          22.4041   73.2416    3.4486 C.3     1  UNL1        0.2611
     30 C          22.0170   73.6453    4.8733 C.3     1  UNL1        0.1582
     31 C          22.1451   75.1650    5.0167 C.3     1  UNL1        0.1625
     32 C          23.5756   75.5816    4.6638 C.3     1  UNL1        0.1686
     33 C          23.9026   75.1031    3.2467 C.3     1  UNL1        0.1760
     34 O          21.8563   75.5431    6.3647 O.3     1  UNL1       -0.3801
     35 O          24.4878   74.9899    5.5907 O.3     1  UNL1       -0.3794
     36 O          23.7342   73.6860    3.1734 O.3     1  UNL1       -0.3263
     37 H          21.9178   76.4944    6.5276 H       1  UNL1        0.2105
     38 H          25.4152   75.2110    5.4264 H       1  UNL1        0.2105
     39 C          19.6266   74.1153    4.9280 C.2     1  UNL1        0.2231
     40 C          18.2034   73.7030    5.1984 C.3     1  UNL1        0.0946
     41 N          20.6329   73.2436    5.1367 N.am    1  UNL1       -0.2994
     42 O          19.8678   75.2330    4.5222 O.2     1  UNL1       -0.2751
     43 H          20.4406   72.3502    5.4621 H       1  UNL1        0.1496
     44 C          25.3506   75.4631    2.9087 C.3     1  UNL1        0.1693
     45 O          25.5213   75.4714    1.4898 O.3     1  UNL1       -0.3794
     46 H          26.4177   75.6923    1.2022 H       1  UNL1        0.2105
@<TRIPOS>BOND
     1    29    30    1
     2    30    41    1
     3    30    31    1
     4    31    34    1
     5    31    32    1
     6    32    35    1
     7    32    33    1
     8    33    36    1
     9    33    44    1
    10    39    40    1
    11    39    42    2
    12    39    41   am
    13    41    43    1
    14    29    28    1
    15    34    37    1
    16    35    38    1
    17    29    36    1
    18    44    45    1
    19    45    46    1
    20    15     6    1
    21    15    16   ar
    22    16    21    2
    23    16    17   ar
    24    17    23    1
    25    17    18   ar
    26    18    19   ar
    27    19    20   ar
    28    15    20   ar
    29    18    22    2
    30     6     7    1
    31     6    11    1
    32     7     9    1
    33     7     8    1
    34     8    13    1
    35     9    10    1
    36     9    12    1
    37    10     5    1
    38    10    11    1
    39    12    14    1
    40     5     4    1
    41     4     1    1
    42     1     2    1
    43     1    24    1
    44     1     3    2
    45    24    25    1
    46    28    25    1
    47    25    26    1
    48    25    27    2
@<TRIPOS>MOLECULE
UD2
 46 48 0 0 0
SMALL
GASTEIGER

@<TRIPOS>ATOM
      1 P          21.9404   74.0016   -6.2086 P.3     1  UNL1        0.2189
      2 O          23.1629   75.0489   -6.2048 O.3     1  UNL1       -0.4371
      3 O          20.6624   74.7347   -6.3440 O.2     1  UNL1       -0.5170
      4 O          22.1092   72.9844   -7.4457 O.3     1  UNL1       -0.3112
      5 C          21.5135   73.2103   -8.7246 C.3     1  UNL1        0.1811
      6 C          18.8253   71.1204   -7.5661 C.3     1  UNL1        0.2383
      7 C          18.1671   72.5020   -7.8109 C.3     1  UNL1        0.1895
      8 O          16.8005   72.3541   -8.2012 O.3     1  UNL1       -0.3779
      9 C          19.0166   73.0651   -8.9765 C.3     1  UNL1        0.1713
     10 C          20.3282   72.2597   -8.9098 C.3     1  UNL1        0.1764
     11 O          20.2302   71.3751   -7.7822 O.3     1  UNL1       -0.3308
     12 O          18.3577   72.8464  -10.2250 O.3     1  UNL1       -0.3794
     13 H          16.3452   73.1910   -8.3652 H       1  UNL1        0.2106
     14 H          17.4983   73.2828  -10.2989 H       1  UNL1        0.2105
     15 N          18.5872   70.6717   -6.1924 N.ar    1  UNL1       -0.2551
     16 C          17.4286   70.0638   -5.8812 C.ar    1  UNL1        0.3323
     17 N          17.1829   69.6414   -4.6268 N.ar    1  UNL1       -0.2743
     18 C          18.1030   69.8216   -3.6576 C.ar    1  UNL1        0.2626
     19 C          19.3275   70.4591   -3.9713 C.ar    1  UNL1        0.0795
     20 C          19.5488   70.8686   -5.2381 C.ar    1  UNL1        0.0869
     21 O          16.5899   69.8945   -6.7451 O.2     1  UNL1       -0.2464
     22 O          17.8821   69.4394   -2.5220 O.2     1  UNL1       -0.2670
     23 H          16.3418   69.2060   -4.4193 H       1  UNL1        0.1734
     24 O          21.9399   73.1718   -4.8286 O.3     1  UNL1       -0.2703
     25 P          23.0534   72.8699   -3.7052 P.3     1  UNL1        0.2208
     26 O          23.3611   71.2896   -3.6663 O.3     1  UNL1       -0.4371
     27 O          24.2948   73.6057   -4.0307 O.2     1  UNL1       -0.5170
     28 O          22.5079   73.3465   -2.2672 O.3     1  UNL1       -0.2865
     29 C          21.3340   72.8029   -1.6608 C.3     1  UNL1        0.2611
     30 C          20.8373   73.7517   -0.5673 C.3     1  UNL1        0.1582
     31 C          21.9100   73.8703    0.5197 C.3     1  UNL1        0.1625
     32 C          22.2278   72.4745    1.0628 C.3     1  UNL1        0.1686
     33 C          22.6711   71.5747   -0.0938 C.3     1  UNL1        0.1760
     34 O          21.4251   74.6966    1.5806 O.3     1  UNL1       -0.3801
     35 O          21.0611   71.9239    1.6769 O.3     1  UNL1       -0.3794
     36 O          21.6414   71.5321   -1.0837 O.3     1  UNL1       -0.3263
     37 H          22.0547   74.8161    2.3047 H       1  UNL1        0.2105
     38 H          21.1897   71.0378    2.0434 H       1  UNL1        0.2105
     39 C          19.4785   75.7626   -0.7856 C.2     1  UNL1        0.2231
     40 C          19.2118   77.1206   -1.3800 C.3     1  UNL1        0.0946
     41 N          20.5785   75.0725   -1.1461 N.am    1  UNL1       -0.2994
     42 O          18.7027   75.2891    0.0183 O.2     1  UNL1       -0.2751
     43 H          21.1984   75.4502   -1.7895 H       1  UNL1        0.1496
     44 C          22.9332   70.1618    0.4311 C.3     1  UNL1        0.1693
     45 O          21.6984   69.4472    0.5147 O.3     1  UNL1       -0.3794
     46 H          21.7888   68.5415    0.8409 H       1  UNL1        0.2105
@<TRIPOS>BOND
     1    29    30    1
     2    30    41    1
     3    30    31    1
     4    31    34    1
     5    31    32    1
     6    32    35    1
     7    32    33    1
     8    33    36    1
     9    33    44    1
    10    39    40    1
    11    39    42    2
    12    39    41   am
    13    41    43    1
    14    29    28    1
    15    34    37    1
    16    35    38    1
    17    29    36    1
    18    44    45    1
    19    45    46    1
    20    15     6    1
    21    15    16   ar
    22    16    21    2
    23    16    17   ar
    24    17    23    1
    25    17    18   ar
    26    18    19   ar
    27    19    20   ar
    28    15    20   ar
    29    18    22    2
    30     6     7    1
    31     6    11    1
    32     7     9    1
    33     7     8    1
    34     8    13    1
    35     9    10    1
    36     9    12    1
    37    10     5    1
    38    10    11    1
    39    12    14    1
    40     5     4    1
    41     4     1    1
    42     1     2    1
    43     1    24    1
    44     1     3    2
    45    24    25    1
    46    28    25    1
    47    25    26    1
    48    25    27    2
@<TRIPOS>MOLECULE
UD2
 46 48 0 0 0
SMALL
GASTEIGER

@<TRIPOS>ATOM
      1 P          21.9631   70.7185   -0.4010 P.3     1  UNL1        0.2189
      2 O          21.5486   69.4460    0.4936 O.3     1  UNL1       -0.4371
      3 O          23.0608   70.3409   -1.3183 O.2     1  UNL1       -0.5170
      4 O          20.6912   71.2082   -1.2590 O.3     1  UNL1       -0.3112
      5 C          20.7480   71.4452   -2.6668 C.3     1  UNL1        0.1811
      6 C          18.2381   71.1364   -5.2245 C.3     1  UNL1        0.2383
      7 C          18.1779   69.7923   -4.4551 C.3     1  UNL1        0.1895
      8 O          16.8545   69.2538   -4.4719 O.3     1  UNL1       -0.3779
      9 C          18.5826   70.2190   -3.0228 C.3     1  UNL1        0.1713
     10 C          19.3262   71.5533   -3.2233 C.3     1  UNL1        0.1764
     11 O          19.3724   71.8092   -4.6360 O.3     1  UNL1       -0.3308
     12 O          17.4217   70.4097   -2.2124 O.3     1  UNL1       -0.3794
     13 H          16.7659   68.4126   -4.0038 H       1  UNL1        0.2106
     14 H          16.8835   69.6143   -2.1015 H       1  UNL1        0.2105
     15 N          18.4601   70.9034   -6.6533 N.ar    1  UNL1       -0.2551
     16 C          17.4065   70.7568   -7.4762 C.ar    1  UNL1        0.3323
     17 N          17.5811   70.5415   -8.7935 N.ar    1  UNL1       -0.2743
     18 C          18.8244   70.4711   -9.3109 C.ar    1  UNL1        0.2626
     19 C          19.9426   70.6246   -8.4563 C.ar    1  UNL1        0.0795
     20 C          19.7381   70.8437   -7.1404 C.ar    1  UNL1        0.0869
     21 O          16.2797   70.8182   -7.0236 O.2     1  UNL1       -0.2464
     22 O          18.9838   70.2766  -10.5031 O.2     1  UNL1       -0.2670
     23 H          16.8104   70.4368   -9.3726 H       1  UNL1        0.1734
     24 O          22.4536   71.9138    0.5602 O.3     1  UNL1       -0.2703
     25 P          21.7573   72.7524    1.7455 P.3     1  UNL1        0.2208
     26 O          20.7559   73.8439    1.1135 O.3     1  UNL1       -0.4371
     27 O          20.9960   71.8330    2.6193 O.2     1  UNL1       -0.5170
     28 O          22.8906   73.5006    2.6108 O.3     1  UNL1       -0.2865
     29 C          22.7983   74.8743    2.9923 C.3     1  UNL1        0.2611
     30 C          24.1888   75.3969    3.3614 C.3     1  UNL1        0.1582
     31 C          24.7155   74.6134    4.5678 C.3     1  UNL1        0.1625
     32 C          23.7198   74.7463    5.7234 C.3     1  UNL1        0.1686
     33 C          22.3471   74.2486    5.2631 C.3     1  UNL1        0.1760
     34 O          25.9820   75.1438    4.9652 O.3     1  UNL1       -0.3801
     35 O          23.6245   76.1165    6.1166 O.3     1  UNL1       -0.3794
     36 O          21.9293   74.9977    4.1201 O.3     1  UNL1       -0.3263
     37 H          26.3755   74.6936    5.7252 H       1  UNL1        0.2105
     38 H          23.0089   76.2752    6.8459 H       1  UNL1        0.2105
     39 C          25.6547   76.2892    1.6316 C.2     1  UNL1        0.2231
     40 C          26.5885   76.1043    0.4643 C.3     1  UNL1        0.0946
     41 N          25.0968   75.2161    2.2259 N.am    1  UNL1       -0.2994
     42 O          25.4043   77.4049    2.0375 O.2     1  UNL1       -0.2751
     43 H          25.2959   74.3240    1.9011 H       1  UNL1        0.1496
     44 C          21.3326   74.4336    6.3931 C.3     1  UNL1        0.1693
     45 O          21.9517   74.1290    7.6447 O.3     1  UNL1       -0.3794
     46 H          21.3656   74.2249    8.4077 H       1  UNL1        0.2105
@<TRIPOS>BOND
     1    29    30    1
     2    30    41    1
     3    30    31    1
     4    31    34    1
     5    31    32    1
     6    32    35    1
     7    32    33    1
     8    33    36    1
     9    33    44    1
    10    39    40    1
    11    39    42    2
    12    39    41   am
    13    41    43    1
    14    29    28    1
    15    34    37    1
    16    35    38    1
    17    29    36    1
    18    44    45    1
    19    45    46    1
    20    15     6    1
    21    15    16   ar
    22    16    21    2
    23    16    17   ar
    24    17    23    1
    25    17    18   ar
    26    18    19   ar
    27    19    20   ar
    28    15    20   ar
    29    18    22    2
    30     6     7    1
    31     6    11    1
    32     7     9    1
    33     7     8    1
    34     8    13    1
    35     9    10    1
    36     9    12    1
    37    10     5    1
    38    10    11    1
    39    12    14    1
    40     5     4    1
    41     4     1    1
    42     1     2    1
    43     1    24    1
    44     1     3    2
    45    24    25    1
    46    28    25    1
    47    25    26    1
    48    25    27    2
@<TRIPOS>MOLECULE
UD2
 46 48 0 0 0
SMALL
GASTEIGER

@<TRIPOS>ATOM
      1 P          21.8071   70.5191   -0.1989 P.3     1  UNL1        0.2189
      2 O          22.1037   69.0428    0.3703 O.3     1  UNL1       -0.4371
      3 O          23.0627   71.1139   -0.7072 O.2     1  UNL1       -0.5170
      4 O          20.7337   70.4269   -1.3960 O.3     1  UNL1       -0.3112
      5 C          20.8023   71.2441   -2.5660 C.3     1  UNL1        0.1811
      6 C          18.2825   71.1439   -5.1306 C.3     1  UNL1        0.2383
      7 C          18.1292   69.7962   -4.3808 C.3     1  UNL1        0.1895
      8 O          16.7722   69.3495   -4.4068 O.3     1  UNL1       -0.3779
      9 C          18.5590   70.1737   -2.9420 C.3     1  UNL1        0.1713
     10 C          19.3923   71.4569   -3.1224 C.3     1  UNL1        0.1764
     11 O          19.4588   71.7293   -4.5312 O.3     1  UNL1       -0.3308
     12 O          17.4122   70.4315   -2.1302 O.3     1  UNL1       -0.3794
     13 H          16.6255   68.5097   -3.9510 H       1  UNL1        0.2106
     14 H          16.8208   69.6732   -2.0314 H       1  UNL1        0.2105
     15 N          18.4912   70.9169   -6.5623 N.ar    1  UNL1       -0.2551
     16 C          17.4300   70.8112   -7.3819 C.ar    1  UNL1        0.3323
     17 N          17.5922   70.6022   -8.7018 N.ar    1  UNL1       -0.2743
     18 C          18.8306   70.4970   -9.2252 C.ar    1  UNL1        0.2626
     19 C          19.9566   70.6073   -8.3743 C.ar    1  UNL1        0.0795
     20 C          19.7646   70.8210   -7.0556 C.ar    1  UNL1        0.0869
     21 O          16.3076   70.9042   -6.9238 O.2     1  UNL1       -0.2464
     22 O          18.9787   70.3083  -10.4198 O.2     1  UNL1       -0.2670
     23 H          16.8163   70.5273   -9.2784 H       1  UNL1        0.1734
     24 O          21.2155   71.4409    0.9816 O.3     1  UNL1       -0.2703
     25 P          21.2299   73.0236    1.2779 P.3     1  UNL1        0.2208
     26 O          22.7322   73.5838    1.1260 O.3     1  UNL1       -0.4371
     27 O          20.3466   73.7144    0.3132 O.2     1  UNL1       -0.5170
     28 O          20.7049   73.2938    2.7759 O.3     1  UNL1       -0.2865
     29 C          20.5997   74.6024    3.3397 C.3     1  UNL1        0.2611
     30 C          21.5685   74.7308    4.5177 C.3     1  UNL1        0.1582
     31 C          21.1754   73.7238    5.6030 C.3     1  UNL1        0.1625
     32 C          19.7227   73.9757    6.0160 C.3     1  UNL1        0.1686
     33 C          18.8249   73.8763    4.7799 C.3     1  UNL1        0.1760
     34 O          22.0296   73.8871    6.7375 O.3     1  UNL1       -0.3801
     35 O          19.6077   75.2805    6.5867 O.3     1  UNL1       -0.3794
     36 O          19.2632   74.8172    3.7978 O.3     1  UNL1       -0.3263
     37 H          21.8373   73.2794    7.4648 H       1  UNL1        0.2105
     38 H          18.7116   75.5086    6.8711 H       1  UNL1        0.2105
     39 C          23.8764   75.4115    4.1329 C.2     1  UNL1        0.2231
     40 C          25.2792   75.1255    3.6649 C.3     1  UNL1        0.0946
     41 N          22.9327   74.4520    4.0620 N.am    1  UNL1       -0.2994
     42 O          23.5952   76.5062    4.5742 O.2     1  UNL1       -0.2751
     43 H          23.1568   73.5769    3.7084 H       1  UNL1        0.1496
     44 C          17.3793   74.1856    5.1736 C.3     1  UNL1        0.1693
     45 O          17.1363   73.7185    6.5022 O.3     1  UNL1       -0.3794
     46 H          16.2372   73.8814    6.8187 H       1  UNL1        0.2105
@<TRIPOS>BOND
     1    29    30    1
     2    30    41    1
     3    30    31    1
     4    31    34    1
     5    31    32    1
     6    32    35    1
     7    32    33    1
     8    33    36    1
     9    33    44    1
    10    39    40    1
    11    39    42    2
    12    39    41   am
    13    41    43    1
    14    29    28    1
    15    34    37    1
    16    35    38    1
    17    29    36    1
    18    44    45    1
    19    45    46    1
    20    15     6    1
    21    15    16   ar
    22    16    21    2
    23    16    17   ar
    24    17    23    1
    25    17    18   ar
    26    18    19   ar
    27    19    20   ar
    28    15    20   ar
    29    18    22    2
    30     6     7    1
    31     6    11    1
    32     7     9    1
    33     7     8    1
    34     8    13    1
    35     9    10    1
    36     9    12    1
    37    10     5    1
    38    10    11    1
    39    12    14    1
    40     5     4    1
    41     4     1    1
    42     1     2    1
    43     1    24    1
    44     1     3    2
    45    24    25    1
    46    28    25    1
    47    25    26    1
    48    25    27    2
@<TRIPOS>MOLECULE
UD2
 46 48 0 0 0
SMALL
GASTEIGER

@<TRIPOS>ATOM
      1 P          21.9440   70.5637   -0.1831 P.3     1  UNL1        0.2189
      2 O          22.5727   69.1459    0.2482 O.3     1  UNL1       -0.4371
      3 O          23.0109   71.4317   -0.7283 O.2     1  UNL1       -0.5170
      4 O          20.8150   70.3301   -1.3076 O.3     1  UNL1       -0.3112
      5 C          20.9263   70.8391   -2.6381 C.3     1  UNL1        0.1811
      6 C          18.3780   71.0468   -5.1678 C.3     1  UNL1        0.2383
      7 C          18.1162   69.6924   -4.4612 C.3     1  UNL1        0.1895
      8 O          16.7251   69.3666   -4.4824 O.3     1  UNL1       -0.3779
      9 C          18.5939   69.9813   -3.0170 C.3     1  UNL1        0.1713
     10 C          19.5340   71.1927   -3.1666 C.3     1  UNL1        0.1764
     11 O          19.6078   71.5067   -4.5664 O.3     1  UNL1       -0.3308
     12 O          17.4834   70.3097   -2.1805 O.3     1  UNL1       -0.3794
     13 H          16.5108   68.5274   -4.0528 H       1  UNL1        0.2106
     14 H          16.8292   69.6028   -2.0984 H       1  UNL1        0.2105
     15 N          18.5495   70.8519   -6.6092 N.ar    1  UNL1       -0.2551
     16 C          17.4684   70.7947   -7.4072 C.ar    1  UNL1        0.3323
     17 N          17.5963   70.6162   -8.7353 N.ar    1  UNL1       -0.2743
     18 C          18.8198   70.4932   -9.2889 C.ar    1  UNL1        0.2626
     19 C          19.9665   70.5526   -8.4609 C.ar    1  UNL1        0.0795
     20 C          19.8089   70.7365   -7.1332 C.ar    1  UNL1        0.0869
     21 O          16.3590   70.9043   -6.9218 O.2     1  UNL1       -0.2464
     22 O          18.9370   70.3320  -10.4909 O.2     1  UNL1       -0.2670
     23 H          16.8063   70.5761   -9.2961 H       1  UNL1        0.1734
     24 O          21.2812   71.2707    1.1030 O.3     1  UNL1       -0.2703
     25 P          21.8097   72.3343    2.1904 P.3     1  UNL1        0.2208
     26 O          20.5527   72.9874    2.9565 O.3     1  UNL1       -0.4371
     27 O          22.6809   71.6478    3.1693 O.2     1  UNL1       -0.5170
     28 O          22.6458   73.4918    1.4464 O.3     1  UNL1       -0.2865
     29 C          22.4884   74.8802    1.7447 C.3     1  UNL1        0.2611
     30 C          23.0326   75.7173    0.5847 C.3     1  UNL1        0.1582
     31 C          24.5313   75.4425    0.4272 C.3     1  UNL1        0.1625
     32 C          25.2381   75.7537    1.7493 C.3     1  UNL1        0.1686
     33 C          24.6087   74.9149    2.8647 C.3     1  UNL1        0.1760
     34 O          25.0631   76.2748   -0.6061 O.3     1  UNL1       -0.3801
     35 O          25.0914   77.1418    2.0542 O.3     1  UNL1       -0.3794
     36 O          23.2094   75.1954    2.9376 O.3     1  UNL1       -0.3263
     37 H          26.0099   76.1526   -0.7608 H       1  UNL1        0.2105
     38 H          25.5153   77.4105    2.8813 H       1  UNL1        0.2105
     39 C          21.4001   76.1753   -1.1654 C.2     1  UNL1        0.2231
     40 C          20.6831   75.8012   -2.4360 C.3     1  UNL1        0.0946
     41 N          22.3354   75.3526   -0.6512 N.am    1  UNL1       -0.2994
     42 O          21.1357   77.2179   -0.6039 O.2     1  UNL1       -0.2751
     43 H          22.5464   74.5185   -1.0993 H       1  UNL1        0.1496
     44 C          25.2694   75.2639    4.1997 C.3     1  UNL1        0.1693
     45 O          25.1467   74.1578    5.0963 O.3     1  UNL1       -0.3794
     46 H          25.5442   74.3088    5.9647 H       1  UNL1        0.2105
@<TRIPOS>BOND
     1    29    30    1
     2    30    41    1
     3    30    31    1
     4    31    34    1
     5    31    32    1
     6    32    35    1
     7    32    33    1
     8    33    36    1
     9    33    44    1
    10    39    40    1
    11    39    42    2
    12    39    41   am
    13    41    43    1
    14    29    28    1
    15    34    37    1
    16    35    38    1
    17    29    36    1
    18    44    45    1
    19    45    46    1
    20    15     6    1
    21    15    16   ar
    22    16    21    2
    23    16    17   ar
    24    17    23    1
    25    17    18   ar
    26    18    19   ar
    27    19    20   ar
    28    15    20   ar
    29    18    22    2
    30     6     7    1
    31     6    11    1
    32     7     9    1
    33     7     8    1
    34     8    13    1
    35     9    10    1
    36     9    12    1
    37    10     5    1
    38    10    11    1
    39    12    14    1
    40     5     4    1
    41     4     1    1
    42     1     2    1
    43     1    24    1
    44     1     3    2
    45    24    25    1
    46    28    25    1
    47    25    26    1
    48    25    27    2
@<TRIPOS>MOLECULE
UD2
 46 48 0 0 0
SMALL
GASTEIGER

@<TRIPOS>ATOM
      1 P          21.8688   70.6582   -0.3089 P.3     1  UNL1        0.2189
      2 O          21.6526   69.3865    0.6540 O.3     1  UNL1       -0.4371
      3 O          23.1007   70.4703   -1.1063 O.2     1  UNL1       -0.5170
      4 O          20.6060   70.8030   -1.2979 O.3     1  UNL1       -0.3112
      5 C          20.7371   71.1266   -2.6834 C.3     1  UNL1        0.1811
      6 C          18.2750   71.1350   -5.3053 C.3     1  UNL1        0.2383
      7 C          18.0340   69.8040   -4.5487 C.3     1  UNL1        0.1895
      8 O          16.6563   69.4287   -4.6028 O.3     1  UNL1       -0.3779
      9 C          18.4500   70.1716   -3.1032 C.3     1  UNL1        0.1713
     10 C          19.3534   71.4078   -3.2743 C.3     1  UNL1        0.1764
     11 O          19.4663   71.6635   -4.6833 O.3     1  UNL1       -0.3308
     12 O          17.2999   70.4964   -2.3205 O.3     1  UNL1       -0.3794
     13 H          16.4553   68.6019   -4.1440 H       1  UNL1        0.2106
     14 H          16.6675   69.7711   -2.2295 H       1  UNL1        0.2105
     15 N          18.5041   70.8843   -6.7300 N.ar    1  UNL1       -0.2551
     16 C          17.4547   70.7221   -7.5553 C.ar    1  UNL1        0.3323
     17 N          17.6358   70.4903   -8.8690 N.ar    1  UNL1       -0.2743
     18 C          18.8817   70.4187   -9.3801 C.ar    1  UNL1        0.2626
     19 C          19.9955   70.5885   -8.5229 C.ar    1  UNL1        0.0795
     20 C          19.7844   70.8240   -7.2109 C.ar    1  UNL1        0.0869
     21 O          16.3257   70.7844   -7.1083 O.2     1  UNL1       -0.2464
     22 O          19.0469   70.2094  -10.5689 O.2     1  UNL1       -0.2670
     23 H          16.8681   70.3745   -9.4498 H       1  UNL1        0.1734
     24 O          22.0054   71.9911    0.5845 O.3     1  UNL1       -0.2703
     25 P          21.4191   73.4856    0.4594 P.3     1  UNL1        0.2208
     26 O          20.0241   73.4488   -0.3444 O.3     1  UNL1       -0.4371
     27 O          21.1942   74.0423    1.8114 O.2     1  UNL1       -0.5170
     28 O          22.4718   74.4104   -0.3339 O.3     1  UNL1       -0.2865
     29 C          23.6750   73.9005   -0.9116 C.3     1  UNL1        0.2611
     30 C          24.7234   75.0139   -0.9748 C.3     1  UNL1        0.1582
     31 C          24.2103   76.1356   -1.8830 C.3     1  UNL1        0.1625
     32 C          23.8956   75.5555   -3.2646 C.3     1  UNL1        0.1686
     33 C          22.8788   74.4211   -3.1131 C.3     1  UNL1        0.1760
     34 O          25.2137   77.1461   -2.0066 O.3     1  UNL1       -0.3801
     35 O          25.0941   75.0478   -3.8538 O.3     1  UNL1       -0.3794
     36 O          23.4050   73.4264   -2.2324 O.3     1  UNL1       -0.3263
     37 H          24.9555   77.8895   -2.5686 H       1  UNL1        0.2105
     38 H          24.9688   74.6634   -4.7327 H       1  UNL1        0.2105
     39 C          26.2156   75.7802    0.7927 C.2     1  UNL1        0.2231
     40 C          26.4573   76.3237    2.1764 C.3     1  UNL1        0.0946
     41 N          24.9578   75.5423    0.3714 N.am    1  UNL1       -0.2994
     42 O          27.1536   75.5561    0.0564 O.2     1  UNL1       -0.2751
     43 H          24.2076   75.7204    0.9601 H       1  UNL1        0.1496
     44 C          22.6039   73.7966   -4.4823 C.3     1  UNL1        0.1693
     45 O          23.4768   72.6829   -4.6826 O.3     1  UNL1       -0.3794
     46 H          23.3581   72.2373   -5.5326 H       1  UNL1        0.2105
@<TRIPOS>BOND
     1    29    30    1
     2    30    41    1
     3    30    31    1
     4    31    34    1
     5    31    32    1
     6    32    35    1
     7    32    33    1
     8    33    36    1
     9    33    44    1
    10    39    40    1
    11    39    42    2
    12    39    41   am
    13    41    43    1
    14    29    28    1
    15    34    37    1
    16    35    38    1
    17    29    36    1
    18    44    45    1
    19    45    46    1
    20    15     6    1
    21    15    16   ar
    22    16    21    2
    23    16    17   ar
    24    17    23    1
    25    17    18   ar
    26    18    19   ar
    27    19    20   ar
    28    15    20   ar
    29    18    22    2
    30     6     7    1
    31     6    11    1
    32     7     9    1
    33     7     8    1
    34     8    13    1
    35     9    10    1
    36     9    12    1
    37    10     5    1
    38    10    11    1
    39    12    14    1
    40     5     4    1
    41     4     1    1
    42     1     2    1
    43     1    24    1
    44     1     3    2
    45    24    25    1
    46    28    25    1
    47    25    26    1
    48    25    27    2
@<TRIPOS>MOLECULE
UD2
 46 48 0 0 0
SMALL
GASTEIGER

@<TRIPOS>ATOM
      1 P          21.9132   70.7078   -2.7992 P.3     1  UNL1        0.2189
      2 O          23.4577   70.4976   -3.2013 O.3     1  UNL1       -0.4371
      3 O          21.0897   69.6563   -3.4356 O.2     1  UNL1       -0.5170
      4 O          21.7582   70.6159   -1.1988 O.3     1  UNL1       -0.3112
      5 C          22.5965   71.3371   -0.2941 C.3     1  UNL1        0.1811
      6 C          21.6675   74.0345    1.8962 C.3     1  UNL1        0.2383
      7 C          23.0265   74.4724    1.2935 C.3     1  UNL1        0.1895
      8 O          23.1017   75.8952    1.1852 O.3     1  UNL1       -0.3779
      9 C          22.9888   73.8131   -0.1070 C.3     1  UNL1        0.1713
     10 C          21.9498   72.6846    0.0360 C.3     1  UNL1        0.1764
     11 O          21.4982   72.6890    1.3996 O.3     1  UNL1       -0.3308
     12 O          22.5688   74.7584   -1.0923 O.3     1  UNL1       -0.3794
     13 H          23.9338   76.2182    0.8139 H       1  UNL1        0.2106
     14 H          23.1562   75.5208   -1.1826 H       1  UNL1        0.2105
     15 N          21.7261   74.0412    3.3596 N.ar    1  UNL1       -0.2551
     16 C          21.9792   72.8982    4.0216 C.ar    1  UNL1        0.3323
     17 N          22.0387   72.8750    5.3663 N.ar    1  UNL1       -0.2743
     18 C          21.8456   74.0067    6.0738 C.ar    1  UNL1        0.2626
     19 C          21.5793   75.2172    5.3898 C.ar    1  UNL1        0.0795
     20 C          21.5296   75.2121    4.0411 C.ar    1  UNL1        0.0869
     21 O          22.1555   71.8702    3.3966 O.2     1  UNL1       -0.2464
     22 O          21.8996   73.9871    7.2909 O.2     1  UNL1       -0.2670
     23 H          22.2210   72.0420    5.8279 H       1  UNL1        0.1734
     24 O          21.4194   72.1553   -3.3033 O.3     1  UNL1       -0.2703
     25 P          21.2939   72.8526   -4.7493 P.3     1  UNL1        0.2208
     26 O          20.8759   74.3970   -4.5654 O.3     1  UNL1       -0.4371
     27 O          22.5945   72.7742   -5.4496 O.2     1  UNL1       -0.5170
     28 O          20.1703   72.0917   -5.6162 O.3     1  UNL1       -0.2865
     29 C          19.0327   72.7553   -6.1701 C.3     1  UNL1        0.2611
     30 C          17.7579   72.0167   -5.7551 C.3     1  UNL1        0.1582
     31 C          17.7920   70.5962   -6.3273 C.3     1  UNL1        0.1625
     32 C          17.9490   70.6736   -7.8483 C.3     1  UNL1        0.1686
     33 C          19.2168   71.4641   -8.1826 C.3     1  UNL1        0.1760
     34 O          16.5723   69.9232   -6.0066 O.3     1  UNL1       -0.3801
     35 O          16.8130   71.3308   -8.4130 O.3     1  UNL1       -0.3794
     36 O          19.1342   72.7643   -7.5955 O.3     1  UNL1       -0.3263
     37 H          16.5253   69.0159   -6.3381 H       1  UNL1        0.2105
     38 H          16.8454   71.4159   -9.3761 H       1  UNL1        0.2105
     39 C          16.4934   72.0887   -3.6734 C.2     1  UNL1        0.2231
     40 C          16.4149   72.0243   -2.1707 C.3     1  UNL1        0.0946
     41 N          17.6824   71.9542   -4.2933 N.am    1  UNL1       -0.2994
     42 O          15.4858   72.2618   -4.3268 O.2     1  UNL1       -0.2751
     43 H          18.4884   71.8167   -3.7713 H       1  UNL1        0.1496
     44 C          19.3491   71.5972   -9.7009 C.3     1  UNL1        0.1693
     45 O          18.7218   70.4801  -10.3342 O.3     1  UNL1       -0.3794
     46 H          18.7673   70.4982  -11.2999 H       1  UNL1        0.2105
@<TRIPOS>BOND
     1    29    30    1
     2    30    41    1
     3    30    31    1
     4    31    34    1
     5    31    32    1
     6    32    35    1
     7    32    33    1
     8    33    36    1
     9    33    44    1
    10    39    40    1
    11    39    42    2
    12    39    41   am
    13    41    43    1
    14    29    28    1
    15    34    37    1
    16    35    38    1
    17    29    36    1
    18    44    45    1
    19    45    46    1
    20    15     6    1
    21    15    16   ar
    22    16    21    2
    23    16    17   ar
    24    17    23    1
    25    17    18   ar
    26    18    19   ar
    27    19    20   ar
    28    15    20   ar
    29    18    22    2
    30     6     7    1
    31     6    11    1
    32     7     9    1
    33     7     8    1
    34     8    13    1
    35     9    10    1
    36     9    12    1
    37    10     5    1
    38    10    11    1
    39    12    14    1
    40     5     4    1
    41     4     1    1
    42     1     2    1
    43     1    24    1
    44     1     3    2
    45    24    25    1
    46    28    25    1
    47    25    26    1
    48    25    27    2
@<TRIPOS>MOLECULE
UD2
 46 48 0 0 0
SMALL
GASTEIGER

@<TRIPOS>ATOM
      1 P          22.7901   71.8296   -3.2110 P.3     1  UNL1        0.2189
      2 O          23.0257   72.5148   -1.7735 O.3     1  UNL1       -0.4371
      3 O          23.4758   70.5192   -3.2519 O.2     1  UNL1       -0.5170
      4 O          21.2120   71.6174   -3.4519 O.3     1  UNL1       -0.3112
      5 C          20.2175   72.0686   -2.5306 C.3     1  UNL1        0.1811
      6 C          17.9610   71.4047   -5.2516 C.3     1  UNL1        0.2383
      7 C          17.9252   70.1154   -4.3921 C.3     1  UNL1        0.1895
      8 O          16.6468   69.4825   -4.4751 O.3     1  UNL1       -0.3779
      9 C          18.1769   70.6671   -2.9674 C.3     1  UNL1        0.1713
     10 C          18.8443   72.0351   -3.2059 C.3     1  UNL1        0.1764
     11 O          18.9937   72.1966   -4.6254 O.3     1  UNL1       -0.3308
     12 O          16.9410   70.8280   -2.2692 O.3     1  UNL1       -0.3794
     13 H          16.5749   68.6710   -3.9547 H       1  UNL1        0.2106
     14 H          16.4495   70.0052   -2.1432 H       1  UNL1        0.2105
     15 N          18.3191   71.0914   -6.6367 N.ar    1  UNL1       -0.2551
     16 C          17.3514   70.8163   -7.5293 C.ar    1  UNL1        0.3323
     17 N          17.6516   70.5249   -8.8088 N.ar    1  UNL1       -0.2743
     18 C          18.9367   70.5063   -9.2172 C.ar    1  UNL1        0.2626
     19 C          19.9654   70.7950   -8.2885 C.ar    1  UNL1        0.0795
     20 C          19.6353   71.0880   -7.0130 C.ar    1  UNL1        0.0869
     21 O          16.1883   70.8295   -7.1751 O.2     1  UNL1       -0.2464
     22 O          19.2097   70.2431  -10.3751 O.2     1  UNL1       -0.2670
     23 H          16.9417   70.3277   -9.4391 H       1  UNL1        0.1734
     24 O          23.3849   72.7832   -4.3643 O.3     1  UNL1       -0.2703
     25 P          23.1583   74.3259   -4.7665 P.3     1  UNL1        0.2208
     26 O          22.8172   74.4259   -6.3373 O.3     1  UNL1       -0.4371
     27 O          22.0335   74.8804   -3.9818 O.2     1  UNL1       -0.5170
     28 O          24.4967   75.1643   -4.4531 O.3     1  UNL1       -0.2865
     29 C          25.4006   74.8230   -3.4006 C.3     1  UNL1        0.2611
     30 C          25.4649   75.9704   -2.3896 C.3     1  UNL1        0.1582
     31 C          26.0112   77.2215   -3.0844 C.3     1  UNL1        0.1625
     32 C          27.3821   76.9006   -3.6862 C.3     1  UNL1        0.1686
     33 C          27.2438   75.7170   -4.6475 C.3     1  UNL1        0.1760
     34 O          26.1438   78.2776   -2.1304 O.3     1  UNL1       -0.3801
     35 O          28.2956   76.5633   -2.6407 O.3     1  UNL1       -0.3794
     36 O          26.7020   74.5963   -3.9457 O.3     1  UNL1       -0.3263
     37 H          26.4848   79.1026   -2.5024 H       1  UNL1        0.2105
     38 H          29.1863   76.3470   -2.9503 H       1  UNL1        0.2105
     39 C          23.7441   75.7489   -0.6787 C.2     1  UNL1        0.2231
     40 C          22.3629   76.0300   -0.1477 C.3     1  UNL1        0.0946
     41 N          24.1211   76.2441   -1.8740 N.am    1  UNL1       -0.2994
     42 O          24.5181   75.0762   -0.0302 O.2     1  UNL1       -0.2751
     43 H          23.5022   76.7811   -2.3932 H       1  UNL1        0.1496
     44 C          28.6198   75.3518   -5.2076 C.3     1  UNL1        0.1693
     45 O          28.4735   74.3515   -6.2178 O.3     1  UNL1       -0.3794
     46 H          29.3078   74.0711   -6.6181 H       1  UNL1        0.2105
@<TRIPOS>BOND
     1    29    30    1
     2    30    41    1
     3    30    31    1
     4    31    34    1
     5    31    32    1
     6    32    35    1
     7    32    33    1
     8    33    36    1
     9    33    44    1
    10    39    40    1
    11    39    42    2
    12    39    41   am
    13    41    43    1
    14    29    28    1
    15    34    37    1
    16    35    38    1
    17    29    36    1
    18    44    45    1
    19    45    46    1
    20    15     6    1
    21    15    16   ar
    22    16    21    2
    23    16    17   ar
    24    17    23    1
    25    17    18   ar
    26    18    19   ar
    27    19    20   ar
    28    15    20   ar
    29    18    22    2
    30     6     7    1
    31     6    11    1
    32     7     9    1
    33     7     8    1
    34     8    13    1
    35     9    10    1
    36     9    12    1
    37    10     5    1
    38    10    11    1
    39    12    14    1
    40     5     4    1
    41     4     1    1
    42     1     2    1
    43     1    24    1
    44     1     3    2
    45    24    25    1
    46    28    25    1
    47    25    26    1
    48    25    27    2
@<TRIPOS>MOLECULE
UD2
 46 48 0 0 0
SMALL
GASTEIGER

@<TRIPOS>ATOM
      1 P          22.1356   70.4106   -0.1996 P.3     1  UNL1        0.2189
      2 O          21.2094   70.8921    1.0259 O.3     1  UNL1       -0.4371
      3 O          23.1238   69.4227    0.2867 O.2     1  UNL1       -0.5170
      4 O          21.2147   69.7345   -1.3347 O.3     1  UNL1       -0.3112
      5 C          21.2459   70.1402   -2.7043 C.3     1  UNL1        0.1811
      6 C          18.6029   70.7823   -5.0578 C.3     1  UNL1        0.2383
      7 C          18.2729   69.3855   -4.4727 C.3     1  UNL1        0.1895
      8 O          16.8617   69.1629   -4.4489 O.3     1  UNL1       -0.3779
      9 C          18.8396   69.4926   -3.0358 C.3     1  UNL1        0.1713
     10 C          19.8608   70.6432   -3.1186 C.3     1  UNL1        0.1764
     11 O          19.8914   71.0908   -4.4832 O.3     1  UNL1       -0.3308
     12 O          17.7985   69.8128   -2.1115 O.3     1  UNL1       -0.3794
     13 H          16.6050   68.3020   -4.0916 H       1  UNL1        0.2106
     14 H          17.0971   69.1494   -2.0626 H       1  UNL1        0.2105
     15 N          18.6901   70.7222   -6.5186 N.ar    1  UNL1       -0.2551
     16 C          17.5639   70.7199   -7.2538 C.ar    1  UNL1        0.3323
     17 N          17.6142   70.6651   -8.5979 N.ar    1  UNL1       -0.2743
     18 C          18.8037   70.6132   -9.2311 C.ar    1  UNL1        0.2626
     19 C          19.9972   70.6160   -8.4696 C.ar    1  UNL1        0.0795
     20 C          19.9171   70.6758   -7.1237 C.ar    1  UNL1        0.0869
     21 O          16.4843   70.7665   -6.6964 O.2     1  UNL1       -0.2464
     22 O          18.8507   70.5640  -10.4476 O.2     1  UNL1       -0.2670
     23 H          16.7926   70.6630   -9.1128 H       1  UNL1        0.1734
     24 O          22.9067   71.6804   -0.8211 O.3     1  UNL1       -0.2703
     25 P          22.6936   73.2737   -0.7267 P.3     1  UNL1        0.2208
     26 O          21.1536   73.6280   -1.0375 O.3     1  UNL1       -0.4371
     27 O          23.0412   73.7384    0.6341 O.2     1  UNL1       -0.5170
     28 O          23.6411   74.0064   -1.8028 O.3     1  UNL1       -0.2865
     29 C          24.2065   75.3009   -1.5884 C.3     1  UNL1        0.2611
     30 C          23.4596   76.3321   -2.4379 C.3     1  UNL1        0.1582
     31 C          23.6383   75.9861   -3.9194 C.3     1  UNL1        0.1625
     32 C          25.1337   75.9394   -4.2449 C.3     1  UNL1        0.1686
     33 C          25.8162   74.9230   -3.3255 C.3     1  UNL1        0.1760
     34 O          23.0057   76.9852   -4.7224 O.3     1  UNL1       -0.3801
     35 O          25.7079   77.2314   -4.0391 O.3     1  UNL1       -0.3794
     36 O          25.5856   75.2858   -1.9628 O.3     1  UNL1       -0.3263
     37 H          23.0789   76.8289   -5.6739 H       1  UNL1        0.2105
     38 H          26.6561   77.2755   -4.2261 H       1  UNL1        0.2105
     39 C          21.5055   77.2870   -1.3392 C.2     1  UNL1        0.2231
     40 C          20.0408   77.2620   -0.9891 C.3     1  UNL1        0.0946
     41 N          22.0349   76.3068   -2.0975 N.am    1  UNL1       -0.2994
     42 O          22.2098   78.1902   -0.9385 O.2     1  UNL1       -0.2751
     43 H          21.4724   75.5841   -2.4173 H       1  UNL1        0.1496
     44 C          27.3205   74.9137   -3.6037 C.3     1  UNL1        0.1693
     45 O          27.5463   74.7083   -4.9998 O.3     1  UNL1       -0.3794
     46 H          28.4803   74.6908   -5.2494 H       1  UNL1        0.2105
@<TRIPOS>BOND
     1    29    30    1
     2    30    41    1
     3    30    31    1
     4    31    34    1
     5    31    32    1
     6    32    35    1
     7    32    33    1
     8    33    36    1
     9    33    44    1
    10    39    40    1
    11    39    42    2
    12    39    41   am
    13    41    43    1
    14    29    28    1
    15    34    37    1
    16    35    38    1
    17    29    36    1
    18    44    45    1
    19    45    46    1
    20    15     6    1
    21    15    16   ar
    22    16    21    2
    23    16    17   ar
    24    17    23    1
    25    17    18   ar
    26    18    19   ar
    27    19    20   ar
    28    15    20   ar
    29    18    22    2
    30     6     7    1
    31     6    11    1
    32     7     9    1
    33     7     8    1
    34     8    13    1
    35     9    10    1
    36     9    12    1
    37    10     5    1
    38    10    11    1
    39    12    14    1
    40     5     4    1
    41     4     1    1
    42     1     2    1
    43     1    24    1
    44     1     3    2
    45    24    25    1
    46    28    25    1
    47    25    26    1
    48    25    27    2
@<TRIPOS>MOLECULE
UD2
 46 48 0 0 0
SMALL
GASTEIGER

@<TRIPOS>ATOM
      1 P          21.8864   70.4667   -0.2847 P.3     1  UNL1        0.2189
      2 O          22.0620   69.3680    0.8786 O.3     1  UNL1       -0.4371
      3 O          23.1878   70.6931   -0.9509 O.2     1  UNL1       -0.5170
      4 O          20.8153   69.9378   -1.3649 O.3     1  UNL1       -0.3112
      5 C          20.9201   70.2141   -2.7628 C.3     1  UNL1        0.1811
      6 C          18.4404   70.9098   -5.2735 C.3     1  UNL1        0.2383
      7 C          17.9859   69.5718   -4.6371 C.3     1  UNL1        0.1895
      8 O          16.5628   69.4477   -4.6723 O.3     1  UNL1       -0.3779
      9 C          18.4919   69.7157   -3.1808 C.3     1  UNL1        0.1713
     10 C          19.5947   70.7879   -3.2697 C.3     1  UNL1        0.1764
     11 O          19.7197   71.1596   -4.6516 O.3     1  UNL1       -0.3308
     12 O          17.4345   70.1547   -2.3264 O.3     1  UNL1       -0.3794
     13 H          16.2297   68.6264   -4.2861 H       1  UNL1        0.2106
     14 H          16.6865   69.5443   -2.2796 H       1  UNL1        0.2105
     15 N          18.5903   70.7668   -6.7234 N.ar    1  UNL1       -0.2551
     16 C          17.4988   70.7643   -7.5091 C.ar    1  UNL1        0.3323
     17 N          17.6069   70.6342   -8.8447 N.ar    1  UNL1       -0.2743
     18 C          18.8207   70.5055   -9.4180 C.ar    1  UNL1        0.2626
     19 C          19.9782   70.5075   -8.6030 C.ar    1  UNL1        0.0795
     20 C          19.8406   70.6437   -7.2673 C.ar    1  UNL1        0.0869
     21 O          16.3980   70.8797   -7.0059 O.2     1  UNL1       -0.2464
     22 O          18.9200   70.3881  -10.6267 O.2     1  UNL1       -0.2670
     23 H          16.8096   70.6332   -9.3964 H       1  UNL1        0.1734
     24 O          21.3636   71.8485    0.3562 O.3     1  UNL1       -0.2703
     25 P          21.6119   73.4028    0.0165 P.3     1  UNL1        0.2208
     26 O          20.4390   74.2893    0.6738 O.3     1  UNL1       -0.4371
     27 O          22.9176   73.8261    0.5683 O.2     1  UNL1       -0.5170
     28 O          21.6110   73.6099   -1.5803 O.3     1  UNL1       -0.2865
     29 C          21.4369   74.8855   -2.1997 C.3     1  UNL1        0.2611
     30 C          20.7350   74.7075   -3.5482 C.3     1  UNL1        0.1582
     31 C          21.6211   73.8611   -4.4674 C.3     1  UNL1        0.1625
     32 C          22.9865   74.5394   -4.6088 C.3     1  UNL1        0.1686
     33 C          23.6017   74.7239   -3.2191 C.3     1  UNL1        0.1760
     34 O          21.0069   73.7512   -5.7535 O.3     1  UNL1       -0.3801
     35 O          22.8241   75.8143   -5.2329 O.3     1  UNL1       -0.3794
     36 O          22.7141   75.4930   -2.4052 O.3     1  UNL1       -0.3263
     37 H          21.5144   73.2265   -6.3877 H       1  UNL1        0.2105
     38 H          23.6509   76.3019   -5.3540 H       1  UNL1        0.2105
     39 C          18.3053   74.6344   -3.7171 C.2     1  UNL1        0.2231
     40 C          16.9853   73.9391   -3.5100 C.3     1  UNL1        0.0946
     41 N          19.4515   74.0306   -3.3462 N.am    1  UNL1       -0.2994
     42 O          18.3371   75.7390   -4.2182 O.2     1  UNL1       -0.2751
     43 H          19.4264   73.1479   -2.9446 H       1  UNL1        0.1496
     44 C          24.9396   75.4549   -3.3468 C.3     1  UNL1        0.1693
     45 O          25.7956   75.0752   -2.2673 O.3     1  UNL1       -0.3794
     46 H          26.6635   75.5014   -2.2842 H       1  UNL1        0.2105
@<TRIPOS>BOND
     1    29    30    1
     2    30    41    1
     3    30    31    1
     4    31    34    1
     5    31    32    1
     6    32    35    1
     7    32    33    1
     8    33    36    1
     9    33    44    1
    10    39    40    1
    11    39    42    2
    12    39    41   am
    13    41    43    1
    14    29    28    1
    15    34    37    1
    16    35    38    1
    17    29    36    1
    18    44    45    1
    19    45    46    1
    20    15     6    1
    21    15    16   ar
    22    16    21    2
    23    16    17   ar
    24    17    23    1
    25    17    18   ar
    26    18    19   ar
    27    19    20   ar
    28    15    20   ar
    29    18    22    2
    30     6     7    1
    31     6    11    1
    32     7     9    1
    33     7     8    1
    34     8    13    1
    35     9    10    1
    36     9    12    1
    37    10     5    1
    38    10    11    1
    39    12    14    1
    40     5     4    1
    41     4     1    1
    42     1     2    1
    43     1    24    1
    44     1     3    2
    45    24    25    1
    46    28    25    1
    47    25    26    1
    48    25    27    2
@<TRIPOS>MOLECULE
UD2
 46 48 0 0 0
SMALL
GASTEIGER

@<TRIPOS>ATOM
      1 P          22.8425   72.5922   -3.5711 P.3     1  UNL1        0.2189
      2 O          23.7866   73.7835   -3.0412 O.3     1  UNL1       -0.4371
      3 O          23.5568   71.3027   -3.4452 O.2     1  UNL1       -0.5170
      4 O          21.4930   72.5463   -2.6935 O.3     1  UNL1       -0.3112
      5 C          21.4106   73.0704   -1.3668 C.3     1  UNL1        0.1811
      6 C          23.1718   72.3701    1.6900 C.3     1  UNL1        0.2383
      7 C          22.4360   71.0484    1.3526 C.3     1  UNL1        0.1895
      8 O          23.1740   69.9192    1.8238 O.3     1  UNL1       -0.3779
      9 C          22.4033   71.0802   -0.1951 C.3     1  UNL1        0.1713
     10 C          22.6002   72.5676   -0.5453 C.3     1  UNL1        0.1764
     11 O          22.6802   73.2917    0.6927 O.3     1  UNL1       -0.3308
     12 O          23.4680   70.2941   -0.7328 O.3     1  UNL1       -0.3794
     13 H          22.7539   69.0687    1.6371 H       1  UNL1        0.2106
     14 H          23.4266   69.3584   -0.4938 H       1  UNL1        0.2105
     15 N          22.8182   72.8284    3.0354 N.ar    1  UNL1       -0.2551
     16 C          21.5990   72.5556    3.5334 C.ar    1  UNL1        0.3323
     17 N          21.2470   72.9646    4.7667 N.ar    1  UNL1       -0.2743
     18 C          22.1193   73.6573    5.5268 C.ar    1  UNL1        0.2626
     19 C          23.4065   73.9505    5.0156 C.ar    1  UNL1        0.0795
     20 C          23.7340   73.5245    3.7775 C.ar    1  UNL1        0.0869
     21 O          20.8024   71.9317    2.8592 O.2     1  UNL1       -0.2464
     22 O          21.8021   74.0277    6.6433 O.2     1  UNL1       -0.2670
     23 H          20.3635   72.7605    5.1099 H       1  UNL1        0.1734
     24 O          22.4686   72.8503   -5.1161 O.3     1  UNL1       -0.2703
     25 P          21.2564   73.6033   -5.8621 P.3     1  UNL1        0.2208
     26 O          20.8701   74.9368   -5.0457 O.3     1  UNL1       -0.4371
     27 O          21.6719   73.9686   -7.2340 O.2     1  UNL1       -0.5170
     28 O          19.9785   72.6261   -5.9301 O.3     1  UNL1       -0.2865
     29 C          18.7152   73.0324   -6.4596 C.3     1  UNL1        0.2611
     30 C          17.6119   72.1334   -5.8963 C.3     1  UNL1        0.1582
     31 C          17.8620   70.6904   -6.3454 C.3     1  UNL1        0.1625
     32 C          17.9225   70.6462   -7.8747 C.3     1  UNL1        0.1686
     33 C          19.0142   71.6028   -8.3618 C.3     1  UNL1        0.1760
     34 O          16.7965   69.8559   -5.8853 O.3     1  UNL1       -0.3801
     35 O          16.6613   71.0455   -8.4143 O.3     1  UNL1       -0.3794
     36 O          18.7381   72.9210   -7.8841 O.3     1  UNL1       -0.3263
     37 H          16.8904   68.9261   -6.1337 H       1  UNL1        0.2105
     38 H          16.6275   71.0417   -9.3812 H       1  UNL1        0.2105
     39 C          16.4653   72.2259   -3.7482 C.2     1  UNL1        0.2231
     40 C          16.4787   72.2943   -2.2436 C.3     1  UNL1        0.0946
     41 N          17.6258   72.2001   -4.4328 N.am    1  UNL1       -0.2994
     42 O          15.4092   72.1940   -4.3447 O.2     1  UNL1       -0.2751
     43 H          18.4703   72.2266   -3.9563 H       1  UNL1        0.1496
     44 C          19.0409   71.6094   -9.8914 C.3     1  UNL1        0.1693
     45 O          18.6749   70.3174  -10.3805 O.3     1  UNL1       -0.3794
     46 H          18.6705   70.2481  -11.3449 H       1  UNL1        0.2105
@<TRIPOS>BOND
     1    29    30    1
     2    30    41    1
     3    30    31    1
     4    31    34    1
     5    31    32    1
     6    32    35    1
     7    32    33    1
     8    33    36    1
     9    33    44    1
    10    39    40    1
    11    39    42    2
    12    39    41   am
    13    41    43    1
    14    29    28    1
    15    34    37    1
    16    35    38    1
    17    29    36    1
    18    44    45    1
    19    45    46    1
    20    15     6    1
    21    15    16   ar
    22    16    21    2
    23    16    17   ar
    24    17    23    1
    25    17    18   ar
    26    18    19   ar
    27    19    20   ar
    28    15    20   ar
    29    18    22    2
    30     6     7    1
    31     6    11    1
    32     7     9    1
    33     7     8    1
    34     8    13    1
    35     9    10    1
    36     9    12    1
    37    10     5    1
    38    10    11    1
    39    12    14    1
    40     5     4    1
    41     4     1    1
    42     1     2    1
    43     1    24    1
    44     1     3    2
    45    24    25    1
    46    28    25    1
    47    25    26    1
    48    25    27    2
@<TRIPOS>MOLECULE
UD2
 46 48 0 0 0
SMALL
GASTEIGER

@<TRIPOS>ATOM
      1 P          22.3979   71.3275   -2.7625 P.3     1  UNL1        0.2189
      2 O          23.6584   70.4358   -3.2179 O.3     1  UNL1       -0.4371
      3 O          21.5552   70.5504   -1.8272 O.2     1  UNL1       -0.5170
      4 O          22.9219   72.6627   -2.0302 O.3     1  UNL1       -0.3112
      5 C          22.1874   73.3216   -0.9969 C.3     1  UNL1        0.1811
      6 C          22.6400   73.4437    2.5692 C.3     1  UNL1        0.2383
      7 C          21.2225   72.8473    2.3765 C.3     1  UNL1        0.1895
      8 O          20.8990   71.9477    3.4385 O.3     1  UNL1       -0.3779
      9 C          21.3686   72.0883    1.0348 C.3     1  UNL1        0.1713
     10 C          22.5898   72.7440    0.3623 C.3     1  UNL1        0.1764
     11 O          23.0399   73.7986    1.2276 O.3     1  UNL1       -0.3308
     12 O          21.6121   70.7005    1.2707 O.3     1  UNL1       -0.3794
     13 H          20.0214   71.5491    3.3629 H       1  UNL1        0.2106
     14 H          20.8999   70.2504    1.7446 H       1  UNL1        0.2105
     15 N          22.5879   74.6320    3.4238 N.ar    1  UNL1       -0.2551
     16 C          21.5129   75.4389    3.3782 C.ar    1  UNL1        0.3323
     17 N          21.4381   76.5377    4.1523 N.ar    1  UNL1       -0.2743
     18 C          22.4472   76.8463    4.9921 C.ar    1  UNL1        0.2626
     19 C          23.5843   76.0051    5.0510 C.ar    1  UNL1        0.0795
     20 C          23.6306   74.9077    4.2668 C.ar    1  UNL1        0.0869
     21 O          20.5955   75.1729    2.6259 O.2     1  UNL1       -0.2464
     22 O          22.3806   77.8403    5.6935 O.2     1  UNL1       -0.2670
     23 H          20.6563   77.1094    4.1062 H       1  UNL1        0.1734
     24 O          21.5303   71.7319   -4.0576 O.3     1  UNL1       -0.2703
     25 P          21.6133   72.9314   -5.1286 P.3     1  UNL1        0.2208
     26 O          21.2750   74.3265   -4.3985 O.3     1  UNL1       -0.4371
     27 O          22.9773   72.9914   -5.6979 O.2     1  UNL1       -0.5170
     28 O          20.5496   72.6712   -6.3091 O.3     1  UNL1       -0.2865
     29 C          20.4062   71.4094   -6.9636 C.3     1  UNL1        0.2611
     30 C          20.2415   71.6302   -8.4692 C.3     1  UNL1        0.1582
     31 C          18.9618   72.4332   -8.7218 C.3     1  UNL1        0.1625
     32 C          17.7735   71.6849   -8.1115 C.3     1  UNL1        0.1686
     33 C          18.0334   71.4620   -6.6193 C.3     1  UNL1        0.1760
     34 O          18.7612   72.5810  -10.1293 O.3     1  UNL1       -0.3801
     35 O          17.6178   70.4231   -8.7634 O.3     1  UNL1       -0.3794
     36 O          19.2533   70.7367   -6.4530 O.3     1  UNL1       -0.3263
     37 H          17.9672   73.0814  -10.3626 H       1  UNL1        0.2105
     38 H          16.8819   69.8934   -8.4260 H       1  UNL1        0.2105
     39 C          21.3907   73.7200   -8.9688 C.2     1  UNL1        0.2231
     40 C          22.5762   74.4839   -9.4976 C.3     1  UNL1        0.0946
     41 N          21.3950   72.3725   -8.9839 N.am    1  UNL1       -0.2994
     42 O          20.4308   74.3178   -8.5290 O.2     1  UNL1       -0.2751
     43 H          22.1618   71.8942   -9.3364 H       1  UNL1        0.1496
     44 C          16.8778   70.6625   -6.0145 C.3     1  UNL1        0.1693
     45 O          16.0871   70.0991   -7.0632 O.3     1  UNL1       -0.3794
     46 H          15.3345   69.5775   -6.7523 H       1  UNL1        0.2105
@<TRIPOS>BOND
     1    29    30    1
     2    30    41    1
     3    30    31    1
     4    31    34    1
     5    31    32    1
     6    32    35    1
     7    32    33    1
     8    33    36    1
     9    33    44    1
    10    39    40    1
    11    39    42    2
    12    39    41   am
    13    41    43    1
    14    29    28    1
    15    34    37    1
    16    35    38    1
    17    29    36    1
    18    44    45    1
    19    45    46    1
    20    15     6    1
    21    15    16   ar
    22    16    21    2
    23    16    17   ar
    24    17    23    1
    25    17    18   ar
    26    18    19   ar
    27    19    20   ar
    28    15    20   ar
    29    18    22    2
    30     6     7    1
    31     6    11    1
    32     7     9    1
    33     7     8    1
    34     8    13    1
    35     9    10    1
    36     9    12    1
    37    10     5    1
    38    10    11    1
    39    12    14    1
    40     5     4    1
    41     4     1    1
    42     1     2    1
    43     1    24    1
    44     1     3    2
    45    24    25    1
    46    28    25    1
    47    25    26    1
    48    25    27    2
@<TRIPOS>MOLECULE
UD2
 46 48 0 0 0
SMALL
GASTEIGER

@<TRIPOS>ATOM
      1 P          20.9074   75.1311   -3.6997 P.3     1  UNL1        0.2189
      2 O          19.3278   74.8493   -3.5690 O.3     1  UNL1       -0.4371
      3 O          21.1365   76.5803   -3.8895 O.2     1  UNL1       -0.5170
      4 O          21.6525   74.6409   -2.3588 O.3     1  UNL1       -0.3112
      5 C          21.1646   73.5730   -1.5447 C.3     1  UNL1        0.1811
      6 C          22.9913   72.4640    1.3485 C.3     1  UNL1        0.2383
      7 C          22.1215   71.2459    0.9463 C.3     1  UNL1        0.1895
      8 O          22.7723   70.0200    1.2859 O.3     1  UNL1       -0.3779
      9 C          22.0211   71.4109   -0.5900 C.3     1  UNL1        0.1713
     10 C          22.3388   72.8992   -0.8304 C.3     1  UNL1        0.1764
     11 O          22.5422   73.5064    0.4555 O.3     1  UNL1       -0.3308
     12 O          22.9827   70.5817   -1.2446 O.3     1  UNL1       -0.3794
     13 H          22.2671   69.2289    1.0544 H       1  UNL1        0.2106
     14 H          22.8656   69.6365   -1.0793 H       1  UNL1        0.2105
     15 N          22.7436   72.8367    2.7430 N.ar    1  UNL1       -0.2551
     16 C          21.5945   72.4687    3.3372 C.ar    1  UNL1        0.3323
     17 N          21.3403   72.7976    4.6176 N.ar    1  UNL1       -0.2743
     18 C          22.2421   73.5046    5.3286 C.ar    1  UNL1        0.2626
     19 C          23.4563   73.8977    4.7160 C.ar    1  UNL1        0.0795
     20 C          23.6867   73.5506    3.4323 C.ar    1  UNL1        0.0869
     21 O          20.7724   71.8307    2.7083 O.2     1  UNL1       -0.2464
     22 O          22.0135   73.8026    6.4876 O.2     1  UNL1       -0.2670
     23 H          20.5063   72.5253    5.0303 H       1  UNL1        0.1734
     24 O          21.4939   74.3245   -4.9642 O.3     1  UNL1       -0.2703
     25 P          21.5374   72.7681   -5.3749 P.3     1  UNL1        0.2208
     26 O          22.2054   72.6167   -6.8325 O.3     1  UNL1       -0.4371
     27 O          22.3407   72.0185   -4.3844 O.2     1  UNL1       -0.5170
     28 O          20.0389   72.1796   -5.4072 O.3     1  UNL1       -0.2865
     29 C          19.7475   70.8060   -5.6710 C.3     1  UNL1        0.2611
     30 C          18.4688   70.7060   -6.5061 C.3     1  UNL1        0.1582
     31 C          17.2988   71.2838   -5.7039 C.3     1  UNL1        0.1625
     32 C          17.1844   70.5321   -4.3749 C.3     1  UNL1        0.1686
     33 C          18.5131   70.6390   -3.6217 C.3     1  UNL1        0.1760
     34 O          16.0876   71.1276   -6.4467 O.3     1  UNL1       -0.3801
     35 O          16.8873   69.1577   -4.6276 O.3     1  UNL1       -0.3794
     36 O          19.5635   70.1127   -4.4350 O.3     1  UNL1       -0.3263
     37 H          15.3039   71.4733   -5.9976 H       1  UNL1        0.2105
     38 H          16.8012   68.6197   -3.8281 H       1  UNL1        0.2105
     39 C          19.4706   71.0197   -8.7051 C.2     1  UNL1        0.2231
     40 C          19.6412   71.8008   -9.9816 C.3     1  UNL1        0.0946
     41 N          18.6343   71.4664   -7.7474 N.am    1  UNL1       -0.2994
     42 O          20.0865   69.9877   -8.5384 O.2     1  UNL1       -0.2751
     43 H          18.1425   72.2920   -7.8799 H       1  UNL1        0.1496
     44 C          18.4266   69.8403   -2.3197 C.3     1  UNL1        0.1693
     45 O          18.3844   68.4435   -2.6188 O.3     1  UNL1       -0.3794
     46 H          18.3290   67.8751   -1.8385 H       1  UNL1        0.2105
@<TRIPOS>BOND
     1    29    30    1
     2    30    41    1
     3    30    31    1
     4    31    34    1
     5    31    32    1
     6    32    35    1
     7    32    33    1
     8    33    36    1
     9    33    44    1
    10    39    40    1
    11    39    42    2
    12    39    41   am
    13    41    43    1
    14    29    28    1
    15    34    37    1
    16    35    38    1
    17    29    36    1
    18    44    45    1
    19    45    46    1
    20    15     6    1
    21    15    16   ar
    22    16    21    2
    23    16    17   ar
    24    17    23    1
    25    17    18   ar
    26    18    19   ar
    27    19    20   ar
    28    15    20   ar
    29    18    22    2
    30     6     7    1
    31     6    11    1
    32     7     9    1
    33     7     8    1
    34     8    13    1
    35     9    10    1
    36     9    12    1
    37    10     5    1
    38    10    11    1
    39    12    14    1
    40     5     4    1
    41     4     1    1
    42     1     2    1
    43     1    24    1
    44     1     3    2
    45    24    25    1
    46    28    25    1
    47    25    26    1
    48    25    27    2
@<TRIPOS>MOLECULE
UD2
 46 48 0 0 0
SMALL
GASTEIGER

@<TRIPOS>ATOM
      1 P          23.4456   74.4432   -4.0763 P.3     1  UNL1        0.2189
      2 O          23.7962   75.3475   -5.3611 O.3     1  UNL1       -0.4371
      3 O          24.4077   73.3231   -3.9834 O.2     1  UNL1       -0.5170
      4 O          23.5400   75.3438   -2.7445 O.3     1  UNL1       -0.3112
      5 C          23.9614   74.8230   -1.4825 C.3     1  UNL1        0.1811
      6 C          21.9945   73.3278    1.1314 C.3     1  UNL1        0.2383
      7 C          21.1505   74.5356    0.6509 C.3     1  UNL1        0.1895
      8 O          19.7538   74.2738    0.8010 O.3     1  UNL1       -0.3779
      9 C          21.5374   74.6282   -0.8454 C.3     1  UNL1        0.1713
     10 C          22.8840   73.8849   -0.9328 C.3     1  UNL1        0.1764
     11 O          23.2304   73.4693    0.3979 O.3     1  UNL1       -0.3308
     12 O          20.5549   73.9812   -1.6558 O.3     1  UNL1       -0.3794
     13 H          19.1841   75.0005    0.5144 H       1  UNL1        0.2106
     14 H          19.6730   74.3722   -1.5935 H       1  UNL1        0.2105
     15 N          22.2376   73.4093    2.5733 N.ar    1  UNL1       -0.2551
     16 C          21.4810   72.6868    3.4186 C.ar    1  UNL1        0.3323
     17 N          21.6822   72.7425    4.7485 N.ar    1  UNL1       -0.2743
     18 C          22.6538   73.5282    5.2557 C.ar    1  UNL1        0.2626
     19 C          23.4584   74.2933    4.3774 C.ar    1  UNL1        0.0795
     20 C          23.2374   74.2149    3.0483 C.ar    1  UNL1        0.0869
     21 O          20.6015   71.9739    2.9753 O.2     1  UNL1       -0.2464
     22 O          22.8371   73.5791    6.4592 O.2     1  UNL1       -0.2670
     23 H          21.1268   72.2160    5.3439 H       1  UNL1        0.1734
     24 O          21.9526   73.8579   -4.2229 O.3     1  UNL1       -0.2703
     25 P          21.2060   72.9652   -5.3359 P.3     1  UNL1        0.2208
     26 O          20.2119   73.8982   -6.1931 O.3     1  UNL1       -0.4371
     27 O          22.2103   72.3576   -6.2362 O.2     1  UNL1       -0.5170
     28 O          20.3601   71.8021   -4.6119 O.3     1  UNL1       -0.2865
     29 C          19.0582   72.0131   -4.0626 C.3     1  UNL1        0.2611
     30 C          18.7894   70.9747   -2.9708 C.3     1  UNL1        0.1582
     31 C          18.8104   69.5751   -3.5931 C.3     1  UNL1        0.1625
     32 C          17.7756   69.5137   -4.7200 C.3     1  UNL1        0.1686
     33 C          18.0836   70.6088   -5.7447 C.3     1  UNL1        0.1760
     34 O          18.4877   68.6042   -2.5950 O.3     1  UNL1       -0.3801
     35 O          16.4687   69.7180   -4.1801 O.3     1  UNL1       -0.3794
     36 O          18.0790   71.8816   -5.0951 O.3     1  UNL1       -0.3263
     37 H          18.4832   67.6933   -2.9198 H       1  UNL1        0.2105
     38 H          15.7615   69.6927   -4.8398 H       1  UNL1        0.2105
     39 C          20.9103   70.2687   -2.0006 C.2     1  UNL1        0.2231
     40 C          21.9775   70.3643   -0.9421 C.3     1  UNL1        0.0946
     41 N          19.8270   71.0680   -1.9406 N.am    1  UNL1       -0.2994
     42 O          21.0255   69.4717   -2.9082 O.2     1  UNL1       -0.2751
     43 H          19.7340   71.7047   -1.2146 H       1  UNL1        0.1496
     44 C          17.0193   70.5927   -6.8435 C.3     1  UNL1        0.1693
     45 O          16.0173   71.5689   -6.5515 O.3     1  UNL1       -0.3794
     46 H          15.3086   71.6144   -7.2077 H       1  UNL1        0.2105
@<TRIPOS>BOND
     1    29    30    1
     2    30    41    1
     3    30    31    1
     4    31    34    1
     5    31    32    1
     6    32    35    1
     7    32    33    1
     8    33    36    1
     9    33    44    1
    10    39    40    1
    11    39    42    2
    12    39    41   am
    13    41    43    1
    14    29    28    1
    15    34    37    1
    16    35    38    1
    17    29    36    1
    18    44    45    1
    19    45    46    1
    20    15     6    1
    21    15    16   ar
    22    16    21    2
    23    16    17   ar
    24    17    23    1
    25    17    18   ar
    26    18    19   ar
    27    19    20   ar
    28    15    20   ar
    29    18    22    2
    30     6     7    1
    31     6    11    1
    32     7     9    1
    33     7     8    1
    34     8    13    1
    35     9    10    1
    36     9    12    1
    37    10     5    1
    38    10    11    1
    39    12    14    1
    40     5     4    1
    41     4     1    1
    42     1     2    1
    43     1    24    1
    44     1     3    2
    45    24    25    1
    46    28    25    1
    47    25    26    1
    48    25    27    2
@<TRIPOS>MOLECULE
UD2
 46 48 0 0 0
SMALL
GASTEIGER

@<TRIPOS>ATOM
      1 P          23.1523   73.7387   -3.6291 P.3     1  UNL1        0.2189
      2 O          23.8984   74.9558   -4.3729 O.3     1  UNL1       -0.4371
      3 O          23.8941   72.4820   -3.8724 O.2     1  UNL1       -0.5170
      4 O          23.0960   74.0310   -2.0463 O.3     1  UNL1       -0.3112
      5 C          23.0832   72.9932   -1.0644 C.3     1  UNL1        0.1811
      6 C          20.8778   73.3617    1.7529 C.3     1  UNL1        0.2383
      7 C          20.8529   74.7453    1.0549 C.3     1  UNL1        0.1895
      8 O          19.5874   75.3842    1.2340 O.3     1  UNL1       -0.3779
      9 C          21.0745   74.3648   -0.4295 C.3     1  UNL1        0.1713
     10 C          21.7205   72.9675   -0.3677 C.3     1  UNL1        0.1764
     11 O          21.8871   72.6342    1.0196 O.3     1  UNL1       -0.3308
     12 O          19.8261   74.3089   -1.1218 O.3     1  UNL1       -0.3794
     13 H          19.5227   76.2534    0.8158 H       1  UNL1        0.2106
     14 H          19.3478   75.1487   -1.1402 H       1  UNL1        0.2105
     15 N          21.2611   73.5004    3.1596 N.ar    1  UNL1       -0.2551
     16 C          20.3086   73.6310    4.1001 C.ar    1  UNL1        0.3323
     17 N          20.6320   73.7604    5.4004 N.ar    1  UNL1       -0.2743
     18 C          21.9256   73.7591    5.7815 C.ar    1  UNL1        0.2626
     19 C          22.9386   73.6214    4.8022 C.ar    1  UNL1        0.0795
     20 C          22.5854   73.4891    3.5063 C.ar    1  UNL1        0.0869
     21 O          19.1381   73.6336    3.7710 O.2     1  UNL1       -0.2464
     22 O          22.2197   73.8757    6.9581 O.2     1  UNL1       -0.2670
     23 H          19.9328   73.8548    6.0655 H       1  UNL1        0.1734
     24 O          21.6537   73.5973   -4.2015 O.3     1  UNL1       -0.2703
     25 P          21.0373   73.3012   -5.6593 P.3     1  UNL1        0.2208
     26 O          20.6454   74.6931   -6.3685 O.3     1  UNL1       -0.4371
     27 O          22.0400   72.5929   -6.4847 O.2     1  UNL1       -0.5170
     28 O          19.7213   72.3856   -5.5096 O.3     1  UNL1       -0.2865
     29 C          19.7296   70.9714   -5.7130 C.3     1  UNL1        0.2611
     30 C          18.5281   70.5715   -6.5728 C.3     1  UNL1        0.1582
     31 C          17.2375   70.9267   -5.8280 C.3     1  UNL1        0.1625
     32 C          17.2366   70.2251   -4.4670 C.3     1  UNL1        0.1686
     33 C          18.4883   70.6385   -3.6883 C.3     1  UNL1        0.1760
     34 O          16.1105   70.4900   -6.5911 O.3     1  UNL1       -0.3801
     35 O          17.2391   68.8094   -4.6595 O.3     1  UNL1       -0.3794
     36 O          19.6517   70.3083   -4.4495 O.3     1  UNL1       -0.3263
     37 H          15.2577   70.6836   -6.1784 H       1  UNL1        0.2105
     38 H          17.2395   68.2999   -3.8370 H       1  UNL1        0.2105
     39 C          19.4322   70.9099   -8.8101 C.2     1  UNL1        0.2231
     40 C          19.4801   71.6541  -10.1188 C.3     1  UNL1        0.0946
     41 N          18.5742   71.2961   -7.8454 N.am    1  UNL1       -0.2994
     42 O          20.1665   69.9621   -8.6239 O.2     1  UNL1       -0.2751
     43 H          17.9877   72.0544   -7.9934 H       1  UNL1        0.1496
     44 C          18.5253   69.8956   -2.3514 C.3     1  UNL1        0.1693
     45 O          19.8752   69.5482   -2.0359 O.3     1  UNL1       -0.3794
     46 H          19.9745   69.0736   -1.1993 H       1  UNL1        0.2105
@<TRIPOS>BOND
     1    29    30    1
     2    30    41    1
     3    30    31    1
     4    31    34    1
     5    31    32    1
     6    32    35    1
     7    32    33    1
     8    33    36    1
     9    33    44    1
    10    39    40    1
    11    39    42    2
    12    39    41   am
    13    41    43    1
    14    29    28    1
    15    34    37    1
    16    35    38    1
    17    29    36    1
    18    44    45    1
    19    45    46    1
    20    15     6    1
    21    15    16   ar
    22    16    21    2
    23    16    17   ar
    24    17    23    1
    25    17    18   ar
    26    18    19   ar
    27    19    20   ar
    28    15    20   ar
    29    18    22    2
    30     6     7    1
    31     6    11    1
    32     7     9    1
    33     7     8    1
    34     8    13    1
    35     9    10    1
    36     9    12    1
    37    10     5    1
    38    10    11    1
    39    12    14    1
    40     5     4    1
    41     4     1    1
    42     1     2    1
    43     1    24    1
    44     1     3    2
    45    24    25    1
    46    28    25    1
    47    25    26    1
    48    25    27    2
@<TRIPOS>MOLECULE
UD2
 46 48 0 0 0
SMALL
GASTEIGER

@<TRIPOS>ATOM
      1 P          18.9121   73.7957   -3.2439 P.3     1  UNL1        0.2189
      2 O          18.0092   74.9949   -2.6626 O.3     1  UNL1       -0.4371
      3 O          19.3988   74.1537   -4.5944 O.2     1  UNL1       -0.5170
      4 O          20.1694   73.5492   -2.2682 O.3     1  UNL1       -0.3112
      5 C          20.1295   72.6452   -1.1624 C.3     1  UNL1        0.1811
      6 C          22.6709   72.3508    1.3657 C.3     1  UNL1        0.2383
      7 C          22.1320   70.9089    1.1850 C.3     1  UNL1        0.1895
      8 O          23.1565   69.9459    1.4397 O.3     1  UNL1       -0.3779
      9 C          21.7235   70.8991   -0.3084 C.3     1  UNL1        0.1713
     10 C          21.5532   72.3889   -0.6620 C.3     1  UNL1        0.1764
     11 O          21.7932   73.1433    0.5366 O.3     1  UNL1       -0.3308
     12 O          22.7540   70.3105   -1.1036 O.3     1  UNL1       -0.3794
     13 H          22.8679   69.0286    1.3401 H       1  UNL1        0.2106
     14 H          22.9442   69.3887   -0.8829 H       1  UNL1        0.2105
     15 N          22.5724   72.7665    2.7666 N.ar    1  UNL1       -0.2551
     16 C          21.4483   72.5122    3.4598 C.ar    1  UNL1        0.3323
     17 N          21.3302   72.8830    4.7484 N.ar    1  UNL1       -0.2743
     18 C          22.3459   73.5181    5.3678 C.ar    1  UNL1        0.2626
     19 C          23.5354   73.7913    4.6505 C.ar    1  UNL1        0.0795
     20 C          23.6279   73.4044    3.3608 C.ar    1  UNL1        0.0869
     21 O          20.5245   71.9401    2.9141 O.2     1  UNL1       -0.2464
     22 O          22.2404   73.8539    6.5343 O.2     1  UNL1       -0.2670
     23 H          20.5122   72.6930    5.2332 H       1  UNL1        0.1734
     24 O          18.0290   72.4518   -3.3301 O.3     1  UNL1       -0.2703
     25 P          18.1432   71.0920   -4.1850 P.3     1  UNL1        0.2208
     26 O          19.6352   70.4998   -4.0536 O.3     1  UNL1       -0.4371
     27 O          17.1729   70.1017   -3.6692 O.2     1  UNL1       -0.5170
     28 O          17.8230   71.4024   -5.7322 O.3     1  UNL1       -0.2865
     29 C          16.5137   71.2924   -6.2933 C.3     1  UNL1        0.2611
     30 C          16.5756   71.5794   -7.7955 C.3     1  UNL1        0.1582
     31 C          17.0552   73.0179   -8.0124 C.3     1  UNL1        0.1625
     32 C          16.1132   73.9751   -7.2769 C.3     1  UNL1        0.1686
     33 C          16.0692   73.5956   -5.7943 C.3     1  UNL1        0.1760
     34 O          17.0458   73.3185   -9.4098 O.3     1  UNL1       -0.3801
     35 O          14.8016   73.8769   -7.8347 O.3     1  UNL1       -0.3794
     36 O          15.6453   72.2372   -5.6643 O.3     1  UNL1       -0.3263
     37 H          17.3396   74.2154   -9.6207 H       1  UNL1        0.2105
     38 H          14.1507   74.4570   -7.4153 H       1  UNL1        0.2105
     39 C          18.8109   70.9832   -8.5606 C.2     1  UNL1        0.2231
     40 C          19.7738   70.0281   -9.2158 C.3     1  UNL1        0.0946
     41 N          17.5114   70.6498   -8.4331 N.am    1  UNL1       -0.2994
     42 O          19.2050   72.0537   -8.1472 O.2     1  UNL1       -0.2751
     43 H          17.1957   69.7945   -8.7644 H       1  UNL1        0.1496
     44 C          15.0843   74.5098   -5.0631 C.3     1  UNL1        0.1693
     45 O          15.2987   74.4119   -3.6536 O.3     1  UNL1       -0.3794
     46 H          14.7077   74.9662   -3.1259 H       1  UNL1        0.2105
@<TRIPOS>BOND
     1    29    30    1
     2    30    41    1
     3    30    31    1
     4    31    34    1
     5    31    32    1
     6    32    35    1
     7    32    33    1
     8    33    36    1
     9    33    44    1
    10    39    40    1
    11    39    42    2
    12    39    41   am
    13    41    43    1
    14    29    28    1
    15    34    37    1
    16    35    38    1
    17    29    36    1
    18    44    45    1
    19    45    46    1
    20    15     6    1
    21    15    16   ar
    22    16    21    2
    23    16    17   ar
    24    17    23    1
    25    17    18   ar
    26    18    19   ar
    27    19    20   ar
    28    15    20   ar
    29    18    22    2
    30     6     7    1
    31     6    11    1
    32     7     9    1
    33     7     8    1
    34     8    13    1
    35     9    10    1
    36     9    12    1
    37    10     5    1
    38    10    11    1
    39    12    14    1
    40     5     4    1
    41     4     1    1
    42     1     2    1
    43     1    24    1
    44     1     3    2
    45    24    25    1
    46    28    25    1
    47    25    26    1
    48    25    27    2
@<TRIPOS>MOLECULE
UD2
 46 48 0 0 0
SMALL
GASTEIGER

@<TRIPOS>ATOM
      1 P          23.1573   72.7823   -3.2563 P.3     1  UNL1        0.2189
      2 O          24.4227   73.7180   -3.5945 O.3     1  UNL1       -0.4371
      3 O          23.4782   71.3775   -3.5916 O.2     1  UNL1       -0.5170
      4 O          22.8113   72.8941   -1.6874 O.3     1  UNL1       -0.3112
      5 C          22.0118   71.9318   -0.9974 C.3     1  UNL1        0.1811
      6 C          22.0017   73.8472    2.0469 C.3     1  UNL1        0.2383
      7 C          21.7403   74.8893    0.9299 C.3     1  UNL1        0.1895
      8 O          20.9283   75.9614    1.4125 O.3     1  UNL1       -0.3779
      9 C          20.9783   74.0509   -0.1254 C.3     1  UNL1        0.1713
     10 C          21.3481   72.5940    0.2126 C.3     1  UNL1        0.1764
     11 O          22.2680   72.6309    1.3153 O.3     1  UNL1       -0.3308
     12 O          19.5695   74.2518    0.0004 O.3     1  UNL1       -0.3794
     13 H          20.7375   76.6395    0.7503 H       1  UNL1        0.2106
     14 H          19.2872   75.1650   -0.1439 H       1  UNL1        0.2105
     15 N          23.1647   74.2320    2.8496 N.ar    1  UNL1       -0.2551
     16 C          24.1713   74.9173    2.2786 C.ar    1  UNL1        0.3323
     17 N          25.2523   75.2838    2.9922 N.ar    1  UNL1       -0.2743
     18 C          25.3410   74.9682    4.3003 C.ar    1  UNL1        0.2626
     19 C          24.2883   74.2480    4.9145 C.ar    1  UNL1        0.0795
     20 C          23.2145   73.8971    4.1760 C.ar    1  UNL1        0.0869
     21 O          24.1047   75.2089    1.1000 O.2     1  UNL1       -0.2464
     22 O          26.3187   75.2997    4.9474 O.2     1  UNL1       -0.2670
     23 H          25.9696   75.7765    2.5646 H       1  UNL1        0.1734
     24 O          21.8869   73.2640   -4.1209 O.3     1  UNL1       -0.2703
     25 P          21.5895   73.3844   -5.6989 P.3     1  UNL1        0.2208
     26 O          21.3239   74.9269   -6.0783 O.3     1  UNL1       -0.4371
     27 O          22.7545   72.8833   -6.4604 O.2     1  UNL1       -0.5170
     28 O          20.2895   72.5090   -6.0682 O.3     1  UNL1       -0.2865
     29 C          19.1147   73.0700   -6.6567 C.3     1  UNL1        0.2611
     30 C          17.8741   72.4058   -6.0545 C.3     1  UNL1        0.1582
     31 C          17.8931   70.9110   -6.3882 C.3     1  UNL1        0.1625
     32 C          17.9635   70.7390   -7.9080 C.3     1  UNL1        0.1686
     33 C          19.2010   71.4676   -8.4389 C.3     1  UNL1        0.1760
     34 O          16.7015   70.2962   -5.8927 O.3     1  UNL1       -0.3801
     35 O          16.7898   71.2920   -8.5062 O.3     1  UNL1       -0.3794
     36 O          19.1359   72.8460   -8.0680 O.3     1  UNL1       -0.3263
     37 H          16.6469   69.3469   -6.0686 H       1  UNL1        0.2105
     38 H          16.7671   71.2186   -9.4706 H       1  UNL1        0.2105
     39 C          18.4496   71.6504   -3.8104 C.2     1  UNL1        0.2231
     40 C          18.4579   71.8318   -2.3152 C.3     1  UNL1        0.0946
     41 N          17.8816   72.5830   -4.6001 N.am    1  UNL1       -0.2994
     42 O          18.9545   70.6640   -4.3047 O.2     1  UNL1       -0.2751
     43 H          17.4769   73.3713   -4.2053 H       1  UNL1        0.1496
     44 C          19.2462   71.3510   -9.9636 C.3     1  UNL1        0.1693
     45 O          18.5757   70.1564  -10.3709 O.3     1  UNL1       -0.3794
     46 H          18.5654   70.0172  -11.3277 H       1  UNL1        0.2105
@<TRIPOS>BOND
     1    29    30    1
     2    30    41    1
     3    30    31    1
     4    31    34    1
     5    31    32    1
     6    32    35    1
     7    32    33    1
     8    33    36    1
     9    33    44    1
    10    39    40    1
    11    39    42    2
    12    39    41   am
    13    41    43    1
    14    29    28    1
    15    34    37    1
    16    35    38    1
    17    29    36    1
    18    44    45    1
    19    45    46    1
    20    15     6    1
    21    15    16   ar
    22    16    21    2
    23    16    17   ar
    24    17    23    1
    25    17    18   ar
    26    18    19   ar
    27    19    20   ar
    28    15    20   ar
    29    18    22    2
    30     6     7    1
    31     6    11    1
    32     7     9    1
    33     7     8    1
    34     8    13    1
    35     9    10    1
    36     9    12    1
    37    10     5    1
    38    10    11    1
    39    12    14    1
    40     5     4    1
    41     4     1    1
    42     1     2    1
    43     1    24    1
    44     1     3    2
    45    24    25    1
    46    28    25    1
    47    25    26    1
    48    25    27    2
@<TRIPOS>MOLECULE
UD2
 46 48 0 0 0
SMALL
GASTEIGER

@<TRIPOS>ATOM
      1 P          19.7720   71.1928   -2.5702 P.3     1  UNL1        0.2189
      2 O          20.8803   71.3730   -3.7238 O.3     1  UNL1       -0.4371
      3 O          19.6916   69.7677   -2.1809 O.2     1  UNL1       -0.5170
      4 O          20.1831   72.0771   -1.2885 O.3     1  UNL1       -0.3112
      5 C          21.1833   73.0963   -1.3360 C.3     1  UNL1        0.1811
      6 C          23.0971   72.4251    1.6345 C.3     1  UNL1        0.2383
      7 C          22.3970   71.0810    1.3099 C.3     1  UNL1        0.1895
      8 O          23.1955   69.9745    1.7342 O.3     1  UNL1       -0.3779
      9 C          22.2976   71.1305   -0.2344 C.3     1  UNL1        0.1713
     10 C          22.4244   72.6283   -0.5720 C.3     1  UNL1        0.1764
     11 O          22.5300   73.3398    0.6714 O.3     1  UNL1       -0.3308
     12 O          23.3669   70.3915   -0.8271 O.3     1  UNL1       -0.3794
     13 H          22.7995   69.1113    1.5534 H       1  UNL1        0.2106
     14 H          23.3702   69.4520   -0.5996 H       1  UNL1        0.2105
     15 N          22.7842   72.8533    2.9996 N.ar    1  UNL1       -0.2551
     16 C          21.5908   72.5448    3.5378 C.ar    1  UNL1        0.3323
     17 N          21.2763   72.9256    4.7901 N.ar    1  UNL1       -0.2743
     18 C          22.1610   73.6255    5.5290 C.ar    1  UNL1        0.2626
     19 C          23.4213   73.9562    4.9755 C.ar    1  UNL1        0.0795
     20 C          23.7115   73.5579    3.7191 C.ar    1  UNL1        0.0869
     21 O          20.7835   71.9140    2.8831 O.2     1  UNL1       -0.2464
     22 O          21.8777   73.9704    6.6628 O.2     1  UNL1       -0.2670
     23 H          20.4110   72.6959    5.1624 H       1  UNL1        0.1734
     24 O          18.3395   71.6807   -3.1209 O.3     1  UNL1       -0.2703
     25 P          17.1724   70.9763   -3.9779 P.3     1  UNL1        0.2208
     26 O          17.4278   69.3869   -4.0268 O.3     1  UNL1       -0.4371
     27 O          15.8633   71.2457   -3.3440 O.2     1  UNL1       -0.5170
     28 O          17.1755   71.5671   -5.4758 O.3     1  UNL1       -0.2865
     29 C          17.8732   72.7592   -5.8410 C.3     1  UNL1        0.2611
     30 C          17.0265   73.5645   -6.8296 C.3     1  UNL1        0.1582
     31 C          16.8196   72.7382   -8.1027 C.3     1  UNL1        0.1625
     32 C          18.1861   72.3613   -8.6815 C.3     1  UNL1        0.1686
     33 C          18.9882   71.6021   -7.6212 C.3     1  UNL1        0.1760
     34 O          16.0921   73.5110   -9.0602 O.3     1  UNL1       -0.3801
     35 O          18.8900   73.5470   -9.0554 O.3     1  UNL1       -0.3794
     36 O          19.1179   72.4139   -6.4524 O.3     1  UNL1       -0.3263
     37 H          15.9241   73.0483   -9.8926 H       1  UNL1        0.2105
     38 H          19.7667   73.3830   -9.4302 H       1  UNL1        0.2105
     39 C          15.1700   75.0833   -6.4000 C.2     1  UNL1        0.2231
     40 C          13.8333   75.3962   -5.7804 C.3     1  UNL1        0.0946
     41 N          15.7264   73.8682   -6.2263 N.am    1  UNL1       -0.2994
     42 O          15.7466   75.9254   -7.0562 O.2     1  UNL1       -0.2751
     43 H          15.2661   73.1950   -5.7009 H       1  UNL1        0.1496
     44 C          20.3775   71.2738   -8.1712 C.3     1  UNL1        0.1693
     45 O          20.3629   69.9705   -8.7573 O.3     1  UNL1       -0.3794
     46 H          21.2129   69.6955   -9.1274 H       1  UNL1        0.2105
@<TRIPOS>BOND
     1    29    30    1
     2    30    41    1
     3    30    31    1
     4    31    34    1
     5    31    32    1
     6    32    35    1
     7    32    33    1
     8    33    36    1
     9    33    44    1
    10    39    40    1
    11    39    42    2
    12    39    41   am
    13    41    43    1
    14    29    28    1
    15    34    37    1
    16    35    38    1
    17    29    36    1
    18    44    45    1
    19    45    46    1
    20    15     6    1
    21    15    16   ar
    22    16    21    2
    23    16    17   ar
    24    17    23    1
    25    17    18   ar
    26    18    19   ar
    27    19    20   ar
    28    15    20   ar
    29    18    22    2
    30     6     7    1
    31     6    11    1
    32     7     9    1
    33     7     8    1
    34     8    13    1
    35     9    10    1
    36     9    12    1
    37    10     5    1
    38    10    11    1
    39    12    14    1
    40     5     4    1
    41     4     1    1
    42     1     2    1
    43     1    24    1
    44     1     3    2
    45    24    25    1
    46    28    25    1
    47    25    26    1
    48    25    27    2
