@<TRIPOS>MOLECULE
*****
 43 45 0 0 0
SMALL
GASTEIGER

@<TRIPOS>ATOM
      1 P          23.0686   71.5476   -2.5047 P.3     1  UNL1        0.2189
      2 O          23.3712   73.0605   -2.0164 O.co2   1  UNL1       -0.4371
      3 O          24.2211   70.8542   -3.1701 O.2     1  UNL1       -0.5170
      4 O          21.7245   71.6880   -3.3945 O.3     1  UNL1       -0.3112
      5 C          20.9035   70.5471   -3.5637 C.3     1  UNL1        0.1811
      6 O          18.9257   71.5577   -4.4829 O.3     1  UNL1       -0.3308
      7 O          17.4279   70.1999   -2.2682 O.3     1  UNL1       -0.3794
      8 O          16.9331   68.5781   -4.4039 O.3     1  UNL1       -0.3779
      9 C          18.5553   69.7378   -3.0125 C.3     1  UNL1        0.1713
     10 C          18.1304   69.3271   -4.4065 C.3     1  UNL1        0.1895
     11 C          19.4551   70.9336   -3.2931 C.3     1  UNL1        0.1764
     12 C          17.9781   70.6709   -5.0985 C.3     1  UNL1        0.2383
     13 H          16.8383   69.4533   -2.0770 H       1  UNL1        0.2105
     14 H          17.0821   67.7319   -3.9525 H       1  UNL1        0.2106
     15 O          16.0899   69.9078   -7.0553 O.2     1  UNL1       -0.2464
     16 O          19.1455   70.4230  -10.4672 O.2     1  UNL1       -0.2670
     17 N          18.2535   70.5971   -6.5055 N.ar    1  UNL1       -0.2551
     18 N          17.6139   70.1641   -8.7526 N.ar    1  UNL1       -0.2743
     19 C          17.2346   70.2023   -7.4044 C.ar    1  UNL1        0.3323
     20 C          19.5195   70.9151   -6.9820 C.ar    1  UNL1        0.0869
     21 C          19.8660   70.8741   -8.2701 C.ar    1  UNL1        0.0795
     22 C          18.8602   70.4707   -9.2745 C.ar    1  UNL1        0.2626
     23 H          16.9219   69.8901   -9.3972 H       1  UNL1        0.1734
     24 O          22.5386   70.8303   -1.1566 O.3     1  UNL1       -0.2703
     25 P          21.9316   71.4505    0.2075 P.3     1  UNL1        0.2208
     26 O          21.4271   70.1421    1.0162 O.co2   1  UNL1       -0.4371
     27 O          20.8714   72.4914   -0.0077 O.2     1  UNL1       -0.5170
     28 O          23.2193   71.9666    1.0309 O.3     1  UNL1       -0.2858
     29 O          24.8182   71.2682    2.6324 O.3     1  UNL1       -0.3226
     30 O          23.2793   74.6665    4.4076 O.3     1  UNL1       -0.3794
     31 O          21.5102   72.7604    3.0766 O.3     1  UNL1       -0.3775
     32 O          25.9006   74.7352    3.1526 O.3     1  UNL1       -0.3792
     33 C          23.6747   73.8287    3.3215 C.3     1  UNL1        0.1718
     34 C          22.8823   72.5220    3.3684 C.3     1  UNL1        0.1968
     35 C          25.1726   73.5482    3.4615 C.3     1  UNL1        0.1723
     36 C          23.4364   71.5099    2.3647 C.3     1  UNL1        0.2706
     37 C          25.6227   72.4395    2.5145 C.3     1  UNL1        0.1830
     38 H          22.3307   74.8582    4.3396 H       1  UNL1        0.2105
     39 H          21.1523   73.4020    3.7096 H       1  UNL1        0.2106
     40 H          25.6234   75.4488    3.7482 H       1  UNL1        0.2106
     41 O          27.5547   72.7635    3.8044 O.co2   1  UNL1       -0.5466
     42 O          27.5194   70.9513    2.4209 O.co2   1  UNL1       -0.5466
     43 C          26.9853   71.9490    2.8817 C.2     1  UNL1        0.0799
@<TRIPOS>UNITY_ATOM_ATTR
2 1
charge -1
26 1
charge -1
41 1
charge -1
@<TRIPOS>BOND
     1     1     4    1
     2     1    24    1
     3     1     2    1
     4     1     3    2
     5    25    28    1
     6    25    24    1
     7    25    26    1
     8    25    27    2
     9     6    11    1
    10     6    12    1
    11    29    36    1
    12    29    37    1
    13     7     9    1
    14     7    13    1
    15     8    10    1
    16     8    14    1
    17     4     5    1
    18    28    36    1
    19    30    33    1
    20    30    38    1
    21    31    34    1
    22    31    39    1
    23    32    35    1
    24    32    40    1
    25    41    43   ar
    26    15    19    2
    27    42    43   ar
    28    16    22    2
    29    17    12    1
    30    17    19   ar
    31    17    20   ar
    32    18    19   ar
    33    18    22   ar
    34    18    23    1
    35     9    10    1
    36     9    11    1
    37    10    12    1
    38    11     5    1
    39    33    34    1
    40    33    35    1
    41    34    36    1
    42    35    37    1
    43    37    43    1
    44    20    21   ar
    45    21    22   ar
@<TRIPOS>MOLECULE
*****
 43 45 0 0 0
SMALL
GASTEIGER

@<TRIPOS>ATOM
      1 P          20.4054   71.1797   -1.3489 P.3     1  UNL1        0.2189
      2 O          20.4468   70.5872    0.1565 O.co2   1  UNL1       -0.4371
      3 O          20.0086   72.6233   -1.4510 O.2     1  UNL1       -0.5170
      4 O          19.4669   70.1346   -2.1521 O.3     1  UNL1       -0.3112
      5 C          19.1906   70.3855   -3.5178 C.3     1  UNL1        0.1811
      6 O          17.5479   71.4208   -4.9347 O.3     1  UNL1       -0.3308
      7 O          15.4958   69.9582   -3.3096 O.3     1  UNL1       -0.3794
      8 O          15.6772   68.4265   -5.5584 O.3     1  UNL1       -0.3779
      9 C          16.8000   69.5366   -3.7093 C.3     1  UNL1        0.1713
     10 C          16.8084   69.1834   -5.1815 C.3     1  UNL1        0.1895
     11 C          17.7191   70.7497   -3.6675 C.3     1  UNL1        0.1764
     12 C          16.8386   70.5547   -5.8347 C.3     1  UNL1        0.2383
     13 H          14.8906   69.1998   -3.3285 H       1  UNL1        0.2105
     14 H          15.7044   67.5627   -5.1167 H       1  UNL1        0.2106
     15 O          15.5330   70.6108   -8.3385 O.2     1  UNL1       -0.2464
     16 O          19.5307   70.5084  -10.6303 O.2     1  UNL1       -0.2670
     17 N          17.5139   70.5436   -7.1015 N.ar    1  UNL1       -0.2551
     18 N          17.5253   70.5587   -9.4776 N.ar    1  UNL1       -0.2743
     19 C          16.7644   70.5739   -8.3012 C.ar    1  UNL1        0.3323
     20 C          18.9022   70.5047   -7.1470 C.ar    1  UNL1        0.0869
     21 C          19.6135   70.4908   -8.2760 C.ar    1  UNL1        0.0795
     22 C          18.9069   70.5197   -9.5734 C.ar    1  UNL1        0.2626
     23 H          17.0255   70.5772  -10.3256 H       1  UNL1        0.1734
     24 O          21.8839   70.8465   -1.9108 O.3     1  UNL1       -0.2703
     25 P          23.0823   71.8207   -2.3887 P.3     1  UNL1        0.2208
     26 O          22.3052   73.0089   -3.1664 O.co2   1  UNL1       -0.4371
     27 O          24.1427   71.1385   -3.2036 O.2     1  UNL1       -0.5170
     28 O          23.6190   72.5060   -1.0305 O.3     1  UNL1       -0.2858
     29 O          23.7091   71.3813    1.0519 O.3     1  UNL1       -0.3226
     30 O          23.6424   75.3388    2.2360 O.3     1  UNL1       -0.3794
     31 O          21.9175   74.4126    0.0677 O.3     1  UNL1       -0.3775
     32 O          26.1235   73.8271    2.3367 O.3     1  UNL1       -0.3792
     33 C          23.9518   74.2401    1.3785 C.3     1  UNL1        0.1718
     34 C          22.6578   73.5589    0.9325 C.3     1  UNL1        0.1968
     35 C          24.8265   73.2596    2.1630 C.3     1  UNL1        0.1723
     36 C          22.9531   72.2470    0.2041 C.3     1  UNL1        0.2706
     37 C          24.9702   71.9302    1.4279 C.3     1  UNL1        0.1830
     38 H          23.0870   75.9752    1.7588 H       1  UNL1        0.2105
     39 H          21.7269   75.2471    0.5234 H       1  UNL1        0.2106
     40 H          26.0461   74.6740    2.8033 H       1  UNL1        0.2106
     41 O          26.8732   71.0509    2.4800 O.co2   1  UNL1       -0.5466
     42 O          24.8894   69.9958    2.8678 O.co2   1  UNL1       -0.5466
     43 C          25.5359   70.8830    2.3311 C.2     1  UNL1        0.0799
@<TRIPOS>UNITY_ATOM_ATTR
2 1
charge -1
26 1
charge -1
41 1
charge -1
@<TRIPOS>BOND
     1     1     4    1
     2     1    24    1
     3     1     2    1
     4     1     3    2
     5    25    28    1
     6    25    24    1
     7    25    26    1
     8    25    27    2
     9     6    11    1
    10     6    12    1
    11    29    36    1
    12    29    37    1
    13     7     9    1
    14     7    13    1
    15     8    10    1
    16     8    14    1
    17     4     5    1
    18    28    36    1
    19    30    33    1
    20    30    38    1
    21    31    34    1
    22    31    39    1
    23    32    35    1
    24    32    40    1
    25    41    43   ar
    26    15    19    2
    27    42    43   ar
    28    16    22    2
    29    17    12    1
    30    17    19   ar
    31    17    20   ar
    32    18    19   ar
    33    18    22   ar
    34    18    23    1
    35     9    10    1
    36     9    11    1
    37    10    12    1
    38    11     5    1
    39    33    34    1
    40    33    35    1
    41    34    36    1
    42    35    37    1
    43    37    43    1
    44    20    21   ar
    45    21    22   ar
@<TRIPOS>MOLECULE
*****
 43 45 0 0 0
SMALL
GASTEIGER

@<TRIPOS>ATOM
      1 P          23.0440   71.4200   -2.3108 P.3     1  UNL1        0.2189
      2 O          22.6653   72.9932   -2.2913 O.co2   1  UNL1       -0.4371
      3 O          24.0814   71.0305   -3.3227 O.2     1  UNL1       -0.5170
      4 O          21.6131   70.6776   -2.4500 O.3     1  UNL1       -0.3112
      5 C          20.9263   70.7596   -3.6854 C.3     1  UNL1        0.1811
      6 O          18.9123   71.6797   -4.6207 O.3     1  UNL1       -0.3308
      7 O          17.4676   70.3176   -2.3736 O.3     1  UNL1       -0.3794
      8 O          17.0266   68.6339   -4.4729 O.3     1  UNL1       -0.3779
      9 C          18.6093   69.8798   -3.1109 C.3     1  UNL1        0.1713
     10 C          18.1966   69.4246   -4.4946 C.3     1  UNL1        0.1895
     11 C          19.4657   71.1004   -3.4192 C.3     1  UNL1        0.1764
     12 C          17.9955   70.7470   -5.2148 C.3     1  UNL1        0.2383
     13 H          16.9052   69.5548   -2.1649 H       1  UNL1        0.2105
     14 H          17.2063   67.8034   -4.0039 H       1  UNL1        0.2106
     15 O          16.0204   70.4316   -7.2089 O.2     1  UNL1       -0.2464
     16 O          19.1666   70.3969  -10.5770 O.2     1  UNL1       -0.2670
     17 N          18.2707   70.6528   -6.6206 N.ar    1  UNL1       -0.2551
     18 N          17.5894   70.4136   -8.8844 N.ar    1  UNL1       -0.2743
     19 C          17.2061   70.4954   -7.5392 C.ar    1  UNL1        0.3323
     20 C          19.5817   70.7180   -7.0765 C.ar    1  UNL1        0.0869
     21 C          19.9315   70.6387   -8.3619 C.ar    1  UNL1        0.0795
     22 C          18.8795   70.4728   -9.3862 C.ar    1  UNL1        0.2626
     23 H          16.8657   70.3018   -9.5425 H       1  UNL1        0.1734
     24 O          23.4574   71.1272   -0.7758 O.3     1  UNL1       -0.2703
     25 P          22.5831   71.1601    0.5837 P.3     1  UNL1        0.2208
     26 O          23.4700   70.2826    1.6151 O.co2   1  UNL1       -0.4371
     27 O          21.1703   70.6797    0.4191 O.2     1  UNL1       -0.5170
     28 O          22.7167   72.6759    1.1195 O.3     1  UNL1       -0.2858
     29 O          24.5853   74.1116    1.3568 O.3     1  UNL1       -0.3226
     30 O          22.2861   75.1780    4.6194 O.3     1  UNL1       -0.3794
     31 O          22.5965   72.3685    3.8812 O.3     1  UNL1       -0.3775
     32 O          22.3963   76.9063    2.2846 O.3     1  UNL1       -0.3792
     33 C          22.5274   74.7202    3.2889 C.3     1  UNL1        0.1718
     34 C          23.3582   73.4374    3.3319 C.3     1  UNL1        0.1968
     35 C          23.2842   75.8197    2.5405 C.3     1  UNL1        0.1723
     36 C          23.8302   73.0442    1.9314 C.3     1  UNL1        0.2706
     37 C          23.8308   75.3125    1.2091 C.3     1  UNL1        0.1830
     38 H          21.8061   74.4954    5.1144 H       1  UNL1        0.2105
     39 H          22.2935   72.6113    4.7699 H       1  UNL1        0.2106
     40 H          22.0412   77.2383    3.1239 H       1  UNL1        0.2106
     41 O          25.9575   76.2830    1.4013 O.co2   1  UNL1       -0.5466
     42 O          24.6651   76.9492   -0.3551 O.co2   1  UNL1       -0.5466
     43 C          24.8307   76.2698    0.6470 C.2     1  UNL1        0.0799
@<TRIPOS>UNITY_ATOM_ATTR
2 1
charge -1
26 1
charge -1
41 1
charge -1
@<TRIPOS>BOND
     1     1     4    1
     2     1    24    1
     3     1     2    1
     4     1     3    2
     5    25    28    1
     6    25    24    1
     7    25    26    1
     8    25    27    2
     9     6    11    1
    10     6    12    1
    11    29    36    1
    12    29    37    1
    13     7     9    1
    14     7    13    1
    15     8    10    1
    16     8    14    1
    17     4     5    1
    18    28    36    1
    19    30    33    1
    20    30    38    1
    21    31    34    1
    22    31    39    1
    23    32    35    1
    24    32    40    1
    25    41    43   ar
    26    15    19    2
    27    42    43   ar
    28    16    22    2
    29    17    12    1
    30    17    19   ar
    31    17    20   ar
    32    18    19   ar
    33    18    22   ar
    34    18    23    1
    35     9    10    1
    36     9    11    1
    37    10    12    1
    38    11     5    1
    39    33    34    1
    40    33    35    1
    41    34    36    1
    42    35    37    1
    43    37    43    1
    44    20    21   ar
    45    21    22   ar
@<TRIPOS>MOLECULE
*****
 43 45 0 0 0
SMALL
GASTEIGER

@<TRIPOS>ATOM
      1 P          23.5034   73.5635   -4.1880 P.3     1  UNL1        0.2189
      2 O          22.7656   74.9852   -4.4190 O.co2   1  UNL1       -0.4371
      3 O          24.9959   73.6389   -4.0520 O.2     1  UNL1       -0.5170
      4 O          22.9538   72.6396   -5.3972 O.3     1  UNL1       -0.3112
      5 C          21.6151   72.1818   -5.3436 C.3     1  UNL1        0.1811
      6 O          20.4751   70.3054   -6.3220 O.3     1  UNL1       -0.3308
      7 O          20.6681   71.7824   -8.9244 O.3     1  UNL1       -0.3794
      8 O          18.0932   72.2545   -8.1609 O.3     1  UNL1       -0.3779
      9 C          20.4606   72.2946   -7.6079 C.3     1  UNL1        0.1713
     10 C          19.0470   72.0051   -7.1496 C.3     1  UNL1        0.1895
     11 C          21.2867   71.4561   -6.6420 C.3     1  UNL1        0.1764
     12 C          19.1316   70.5352   -6.7753 C.3     1  UNL1        0.2383
     13 H          20.1502   72.3024   -9.5593 H       1  UNL1        0.2105
     14 H          18.0772   73.2036   -8.3632 H       1  UNL1        0.2106
     15 O          16.4253   69.8378   -7.1831 O.2     1  UNL1       -0.2464
     16 O          15.7190   69.2046   -2.6727 O.2     1  UNL1       -0.2670
     17 N          18.2179   70.1836   -5.7253 N.ar    1  UNL1       -0.2551
     18 N          16.0758   69.5241   -4.9362 N.ar    1  UNL1       -0.2743
     19 C          16.8789   69.8495   -6.0372 C.ar    1  UNL1        0.3323
     20 C          18.6507   70.1705   -4.4048 C.ar    1  UNL1        0.0869
     21 C          17.8736   69.8581   -3.3660 C.ar    1  UNL1        0.0795
     22 C          16.4607   69.4977   -3.6055 C.ar    1  UNL1        0.2626
     23 H          15.1390   69.2899   -5.1282 H       1  UNL1        0.1734
     24 O          22.7391   72.9637   -2.8961 O.3     1  UNL1       -0.2703
     25 P          22.8476   71.5217   -2.1733 P.3     1  UNL1        0.2208
     26 O          24.1900   70.8856   -2.8166 O.co2   1  UNL1       -0.4371
     27 O          21.6242   70.6644   -2.3225 O.2     1  UNL1       -0.5170
     28 O          23.2474   71.8580   -0.6470 O.3     1  UNL1       -0.2858
     29 O          24.6023   70.8760    1.0291 O.3     1  UNL1       -0.3226
     30 O          21.2403   71.9395    3.1819 O.3     1  UNL1       -0.3794
     31 O          20.9831   70.7483    0.5268 O.3     1  UNL1       -0.3775
     32 O          23.6752   73.5116    3.4075 O.3     1  UNL1       -0.3792
     33 C          22.2194   72.0609    2.1500 C.3     1  UNL1        0.1718
     34 C          22.1943   70.8102    1.2711 C.3     1  UNL1        0.1968
     35 C          23.5893   72.2174    2.8140 C.3     1  UNL1        0.1723
     36 C          23.3763   70.7997    0.3007 C.3     1  UNL1        0.2706
     37 C          24.7200   72.0697    1.8000 C.3     1  UNL1        0.1830
     38 H          20.3614   71.8388    2.7836 H       1  UNL1        0.2105
     39 H          20.2289   70.7549    1.1363 H       1  UNL1        0.2106
     40 H          22.9609   73.6185    4.0549 H       1  UNL1        0.2106
     41 O          26.4012   73.0401    3.1165 O.co2   1  UNL1       -0.5466
     42 O          26.6895   70.8641    2.4991 O.co2   1  UNL1       -0.5466
     43 C          26.0329   71.8946    2.4912 C.2     1  UNL1        0.0799
@<TRIPOS>UNITY_ATOM_ATTR
2 1
charge -1
26 1
charge -1
41 1
charge -1
@<TRIPOS>BOND
     1     1     4    1
     2     1    24    1
     3     1     2    1
     4     1     3    2
     5    25    28    1
     6    25    24    1
     7    25    26    1
     8    25    27    2
     9     6    11    1
    10     6    12    1
    11    29    36    1
    12    29    37    1
    13     7     9    1
    14     7    13    1
    15     8    10    1
    16     8    14    1
    17     4     5    1
    18    28    36    1
    19    30    33    1
    20    30    38    1
    21    31    34    1
    22    31    39    1
    23    32    35    1
    24    32    40    1
    25    41    43   ar
    26    15    19    2
    27    42    43   ar
    28    16    22    2
    29    17    12    1
    30    17    19   ar
    31    17    20   ar
    32    18    19   ar
    33    18    22   ar
    34    18    23    1
    35     9    10    1
    36     9    11    1
    37    10    12    1
    38    11     5    1
    39    33    34    1
    40    33    35    1
    41    34    36    1
    42    35    37    1
    43    37    43    1
    44    20    21   ar
    45    21    22   ar
@<TRIPOS>MOLECULE
*****
 43 45 0 0 0
SMALL
GASTEIGER

@<TRIPOS>ATOM
      1 P          21.2627   72.0037   -1.7191 P.3     1  UNL1        0.2189
      2 O          20.6006   70.5332   -1.8537 O.co2   1  UNL1       -0.4371
      3 O          20.3485   73.0630   -1.1770 O.2     1  UNL1       -0.5170
      4 O          21.8758   72.2896   -3.1889 O.3     1  UNL1       -0.3112
      5 C          21.1633   73.1447   -4.0640 C.3     1  UNL1        0.1811
      6 O          20.4356   71.2615   -5.3685 O.3     1  UNL1       -0.3308
      7 O          20.8468   73.0048   -7.7733 O.3     1  UNL1       -0.3794
      8 O          18.1454   73.1096   -7.4162 O.3     1  UNL1       -0.3779
      9 C          20.3729   73.3559   -6.4730 C.3     1  UNL1        0.1713
     10 C          18.9527   72.8670   -6.2831 C.3     1  UNL1        0.1895
     11 C          21.1362   72.5213   -5.4537 C.3     1  UNL1        0.1764
     12 C          19.1616   71.3854   -6.0203 C.3     1  UNL1        0.2383
     13 H          20.3736   73.5254   -8.4417 H       1  UNL1        0.2105
     14 H          18.0422   74.0666   -7.5407 H       1  UNL1        0.2106
     15 O          17.2087   69.5303   -6.8694 O.2     1  UNL1       -0.2464
     16 O          15.3150   69.3260   -2.6723 O.2     1  UNL1       -0.2670
     17 N          18.1463   70.8311   -5.1702 N.ar    1  UNL1       -0.2551
     18 N          16.2667   69.4311   -4.7785 N.ar    1  UNL1       -0.2743
     19 C          17.2129   69.9067   -5.6959 C.ar    1  UNL1        0.3323
     20 C          18.0831   71.2021   -3.8326 C.ar    1  UNL1        0.0869
     21 C          17.1755   70.7401   -2.9703 C.ar    1  UNL1        0.0795
     22 C          16.1635   69.7710   -3.4393 C.ar    1  UNL1        0.2626
     23 H          15.6051   68.7878   -5.1217 H       1  UNL1        0.1734
     24 O          22.5797   71.7281   -0.8234 O.3     1  UNL1       -0.2703
     25 P          22.7391   71.1780    0.6885 P.3     1  UNL1        0.2208
     26 O          24.2581   70.6196    0.7207 O.co2   1  UNL1       -0.4371
     27 O          21.7011   70.1703    1.0898 O.2     1  UNL1       -0.5170
     28 O          22.7736   72.5050    1.6052 O.3     1  UNL1       -0.2858
     29 O          24.0591   73.0655    3.5137 O.3     1  UNL1       -0.3226
     30 O          20.4648   74.9248    4.3456 O.3     1  UNL1       -0.3794
     31 O          20.5119   72.2370    3.2018 O.3     1  UNL1       -0.3775
     32 O          22.7489   76.4923    3.4644 O.3     1  UNL1       -0.3792
     33 C          21.5118   74.4255    3.5134 C.3     1  UNL1        0.1718
     34 C          21.6512   72.9165    3.7164 C.3     1  UNL1        0.1968
     35 C          22.8082   75.1374    3.9061 C.3     1  UNL1        0.1723
     36 C          22.9048   72.3845    3.0205 C.3     1  UNL1        0.2706
     37 C          24.0247   74.4701    3.2708 C.3     1  UNL1        0.1830
     38 H          19.6307   74.4865    4.1141 H       1  UNL1        0.2105
     39 H          19.7127   72.5699    3.6388 H       1  UNL1        0.2106
     40 H          21.9788   76.9284    3.8615 H       1  UNL1        0.2106
     41 O          25.6523   76.1542    3.3982 O.co2   1  UNL1       -0.5466
     42 O          25.9098   74.3527    4.7721 O.co2   1  UNL1       -0.5466
     43 C          25.2872   74.9518    3.9082 C.2     1  UNL1        0.0799
@<TRIPOS>UNITY_ATOM_ATTR
2 1
charge -1
26 1
charge -1
41 1
charge -1
@<TRIPOS>BOND
     1     1     4    1
     2     1    24    1
     3     1     2    1
     4     1     3    2
     5    25    28    1
     6    25    24    1
     7    25    26    1
     8    25    27    2
     9     6    11    1
    10     6    12    1
    11    29    36    1
    12    29    37    1
    13     7     9    1
    14     7    13    1
    15     8    10    1
    16     8    14    1
    17     4     5    1
    18    28    36    1
    19    30    33    1
    20    30    38    1
    21    31    34    1
    22    31    39    1
    23    32    35    1
    24    32    40    1
    25    41    43   ar
    26    15    19    2
    27    42    43   ar
    28    16    22    2
    29    17    12    1
    30    17    19   ar
    31    17    20   ar
    32    18    19   ar
    33    18    22   ar
    34    18    23    1
    35     9    10    1
    36     9    11    1
    37    10    12    1
    38    11     5    1
    39    33    34    1
    40    33    35    1
    41    34    36    1
    42    35    37    1
    43    37    43    1
    44    20    21   ar
    45    21    22   ar
@<TRIPOS>MOLECULE
*****
 43 45 0 0 0
SMALL
GASTEIGER

@<TRIPOS>ATOM
      1 P          23.6646   72.9660   -3.5601 P.3     1  UNL1        0.2189
      2 O          25.0036   73.8630   -3.7056 O.co2   1  UNL1       -0.4371
      3 O          23.7320   71.8919   -2.5143 O.2     1  UNL1       -0.5170
      4 O          23.3699   72.4603   -5.0685 O.3     1  UNL1       -0.3112
      5 C          22.0859   71.9456   -5.3704 C.3     1  UNL1        0.1811
      6 O          20.6992   71.5715   -7.2977 O.3     1  UNL1       -0.3308
      7 O          20.9722   74.5093   -7.8332 O.3     1  UNL1       -0.3794
      8 O          18.4993   74.3380   -6.6966 O.3     1  UNL1       -0.3779
      9 C          20.8732   73.8237   -6.5847 C.3     1  UNL1        0.1713
     10 C          19.4524   73.3529   -6.3565 C.3     1  UNL1        0.1895
     11 C          21.6286   72.5077   -6.7103 C.3     1  UNL1        0.1764
     12 C          19.3768   72.1309   -7.2559 C.3     1  UNL1        0.2383
     13 H          20.4969   75.3534   -7.7775 H       1  UNL1        0.2105
     14 H          18.5879   75.0948   -6.0954 H       1  UNL1        0.2106
     15 O          17.4809   70.7661   -8.8431 O.2     1  UNL1       -0.2464
     16 O          15.9335   68.3468   -5.2381 O.2     1  UNL1       -0.2670
     17 N          18.4660   71.1394   -6.7578 N.ar    1  UNL1       -0.2551
     18 N          16.7113   69.5632   -7.0459 N.ar    1  UNL1       -0.2743
     19 C          17.5529   70.5135   -7.6390 C.ar    1  UNL1        0.3323
     20 C          18.4839   70.7950   -5.4117 C.ar    1  UNL1        0.0869
     21 C          17.6756   69.8872   -4.8609 C.ar    1  UNL1        0.0795
     22 C          16.6914   69.1875   -5.7125 C.ar    1  UNL1        0.2626
     23 H          16.0656   69.1155   -7.6391 H       1  UNL1        0.1734
     24 O          22.5115   74.0722   -3.3159 O.3     1  UNL1       -0.2703
     25 P          22.4156   75.2891   -2.2560 P.3     1  UNL1        0.2208
     26 O          20.8836   75.7901   -2.4057 O.co2   1  UNL1       -0.4371
     27 O          23.4412   76.3662   -2.4605 O.2     1  UNL1       -0.5170
     28 O          22.4716   74.5774   -0.8094 O.3     1  UNL1       -0.2858
     29 O          21.6373   72.4890   -0.0665 O.3     1  UNL1       -0.3226
     30 O          21.1593   74.8316    3.3026 O.3     1  UNL1       -0.3794
     31 O          20.5071   75.8894    0.6588 O.3     1  UNL1       -0.3775
     32 O          23.3245   72.8966    3.1660 O.3     1  UNL1       -0.3792
     33 C          21.7810   74.4025    2.0913 C.3     1  UNL1        0.1718
     34 C          20.7871   74.5221    0.9357 C.3     1  UNL1        0.1968
     35 C          22.2140   72.9458    2.2723 C.3     1  UNL1        0.1723
     36 C          21.3361   73.8601   -0.3288 C.3     1  UNL1        0.2706
     37 C          22.6284   72.3188    0.9443 C.3     1  UNL1        0.1830
     38 H          20.8757   75.7549    3.2112 H       1  UNL1        0.2105
     39 H          20.1586   76.3158    1.4570 H       1  UNL1        0.2106
     40 H          23.0739   73.2928    4.0152 H       1  UNL1        0.2106
     41 O          21.5097   70.2573    0.9332 O.co2   1  UNL1       -0.5466
     42 O          23.7657   70.2146    1.2611 O.co2   1  UNL1       -0.5466
     43 C          22.7299   70.8333    1.0679 C.2     1  UNL1        0.0799
@<TRIPOS>UNITY_ATOM_ATTR
2 1
charge -1
26 1
charge -1
41 1
charge -1
@<TRIPOS>BOND
     1     1     4    1
     2     1    24    1
     3     1     2    1
     4     1     3    2
     5    25    28    1
     6    25    24    1
     7    25    26    1
     8    25    27    2
     9     6    11    1
    10     6    12    1
    11    29    36    1
    12    29    37    1
    13     7     9    1
    14     7    13    1
    15     8    10    1
    16     8    14    1
    17     4     5    1
    18    28    36    1
    19    30    33    1
    20    30    38    1
    21    31    34    1
    22    31    39    1
    23    32    35    1
    24    32    40    1
    25    41    43   ar
    26    15    19    2
    27    42    43   ar
    28    16    22    2
    29    17    12    1
    30    17    19   ar
    31    17    20   ar
    32    18    19   ar
    33    18    22   ar
    34    18    23    1
    35     9    10    1
    36     9    11    1
    37    10    12    1
    38    11     5    1
    39    33    34    1
    40    33    35    1
    41    34    36    1
    42    35    37    1
    43    37    43    1
    44    20    21   ar
    45    21    22   ar
@<TRIPOS>MOLECULE
*****
 43 45 0 0 0
SMALL
GASTEIGER

@<TRIPOS>ATOM
      1 P          21.3355   72.7736   -4.5461 P.3     1  UNL1        0.2189
      2 O          21.1136   74.2610   -3.9485 O.co2   1  UNL1       -0.4371
      3 O          22.2010   72.7051   -5.7700 O.2     1  UNL1       -0.5170
      4 O          19.8341   72.1943   -4.7139 O.3     1  UNL1       -0.3112
      5 C          19.3076   71.3732   -3.6877 C.3     1  UNL1        0.1811
      6 O          17.4418   71.7135   -5.1643 O.3     1  UNL1       -0.3308
      7 O          15.8445   70.0822   -3.2204 O.3     1  UNL1       -0.3794
      8 O          16.3862   68.2873   -5.2006 O.3     1  UNL1       -0.3779
      9 C          17.2090   69.9369   -3.6150 C.3     1  UNL1        0.1713
     10 C          17.2919   69.3540   -5.0098 C.3     1  UNL1        0.1895
     11 C          17.7904   71.3296   -3.8166 C.3     1  UNL1        0.1764
     12 C          16.9665   70.5594   -5.8753 C.3     1  UNL1        0.2383
     13 H          15.4515   69.2052   -3.0856 H       1  UNL1        0.2105
     14 H          16.6362   67.5446   -4.6280 H       1  UNL1        0.2106
     15 O          15.6094   70.7020   -8.3480 O.2     1  UNL1       -0.2464
     16 O          19.5366   70.3334  -10.7323 O.2     1  UNL1       -0.2670
     17 N          17.6097   70.5032   -7.1574 N.ar    1  UNL1       -0.2551
     18 N          17.5666   70.5172   -9.5332 N.ar    1  UNL1       -0.2743
     19 C          16.8360   70.5832   -8.3394 C.ar    1  UNL1        0.3323
     20 C          18.9909   70.3719   -7.2353 C.ar    1  UNL1        0.0869
     21 C          19.6731   70.3105   -8.3805 C.ar    1  UNL1        0.0795
     22 C          18.9399   70.3863   -9.6612 C.ar    1  UNL1        0.2626
     23 H          17.0494   70.5688  -10.3694 H       1  UNL1        0.1734
     24 O          21.9018   71.9524   -3.2742 O.3     1  UNL1       -0.2703
     25 P          23.3617   71.9456   -2.5796 P.3     1  UNL1        0.2208
     26 O          23.9850   73.3746   -3.0150 O.co2   1  UNL1       -0.4371
     27 O          24.2118   70.7631   -2.9444 O.2     1  UNL1       -0.5170
     28 O          23.0645   72.0950   -1.0010 O.3     1  UNL1       -0.2858
     29 O          24.3024   70.9411    0.6559 O.3     1  UNL1       -0.3226
     30 O          20.8041   71.8114    2.6740 O.3     1  UNL1       -0.3794
     31 O          20.7252   70.8917   -0.0977 O.3     1  UNL1       -0.3775
     32 O          23.2199   73.3345    3.2174 O.3     1  UNL1       -0.3792
     33 C          21.8506   72.0271    1.7272 C.3     1  UNL1        0.1718
     34 C          21.8836   70.8700    0.7284 C.3     1  UNL1        0.1968
     35 C          23.1728   72.1064    2.4937 C.3     1  UNL1        0.1723
     36 C          23.1282   70.9468   -0.1569 C.3     1  UNL1        0.2706
     37 C          24.3691   72.0514    1.5480 C.3     1  UNL1        0.1830
     38 H          19.9539   71.7576    2.2097 H       1  UNL1        0.2105
     39 H          19.9317   70.8436    0.4575 H       1  UNL1        0.2106
     40 H          22.4636   73.3822    3.8230 H       1  UNL1        0.2106
     41 O          25.9721   72.8824    3.0451 O.co2   1  UNL1       -0.5466
     42 O          26.2754   70.7600    2.2689 O.co2   1  UNL1       -0.5466
     43 C          25.6323   71.7984    2.3047 C.2     1  UNL1        0.0799
@<TRIPOS>UNITY_ATOM_ATTR
2 1
charge -1
26 1
charge -1
41 1
charge -1
@<TRIPOS>BOND
     1     1     4    1
     2     1    24    1
     3     1     2    1
     4     1     3    2
     5    25    28    1
     6    25    24    1
     7    25    26    1
     8    25    27    2
     9     6    11    1
    10     6    12    1
    11    29    36    1
    12    29    37    1
    13     7     9    1
    14     7    13    1
    15     8    10    1
    16     8    14    1
    17     4     5    1
    18    28    36    1
    19    30    33    1
    20    30    38    1
    21    31    34    1
    22    31    39    1
    23    32    35    1
    24    32    40    1
    25    41    43   ar
    26    15    19    2
    27    42    43   ar
    28    16    22    2
    29    17    12    1
    30    17    19   ar
    31    17    20   ar
    32    18    19   ar
    33    18    22   ar
    34    18    23    1
    35     9    10    1
    36     9    11    1
    37    10    12    1
    38    11     5    1
    39    33    34    1
    40    33    35    1
    41    34    36    1
    42    35    37    1
    43    37    43    1
    44    20    21   ar
    45    21    22   ar
@<TRIPOS>MOLECULE
*****
 43 45 0 0 0
SMALL
GASTEIGER

@<TRIPOS>ATOM
      1 P          23.5175   72.4731   -3.5244 P.3     1  UNL1        0.2189
      2 O          23.9581   70.9845   -3.0673 O.co2   1  UNL1       -0.4371
      3 O          24.5751   73.2521   -4.2500 O.2     1  UNL1       -0.5170
      4 O          22.9571   73.1472   -2.1644 O.3     1  UNL1       -0.3112
      5 C          21.9748   74.1615   -2.2676 C.3     1  UNL1        0.1811
      6 O          21.1317   72.6040   -0.6425 O.3     1  UNL1       -0.3308
      7 O          19.1117   74.7084    0.0523 O.3     1  UNL1       -0.3794
      8 O          20.9490   74.9630    2.0512 O.3     1  UNL1       -0.3779
      9 C          20.4784   74.8596   -0.3321 C.3     1  UNL1        0.1713
     10 C          21.3909   74.4594    0.8079 C.3     1  UNL1        0.1895
     11 C          20.7921   73.7990   -1.3786 C.3     1  UNL1        0.1764
     12 C          21.3360   72.9429    0.7384 C.3     1  UNL1        0.2383
     13 H          18.8877   75.3754    0.7206 H       1  UNL1        0.2105
     14 H          21.0033   75.9320    2.0453 H       1  UNL1        0.2106
     15 O          21.6596   70.1696    1.1635 O.2     1  UNL1       -0.2464
     16 O          26.0413   70.6992    2.4916 O.2     1  UNL1       -0.2670
     17 N          22.5507   72.3291    1.1950 N.ar    1  UNL1       -0.2551
     18 N          23.8413   70.4361    1.8255 N.ar    1  UNL1       -0.2743
     19 C          22.6082   70.9270    1.3765 C.ar    1  UNL1        0.3323
     20 C          23.6681   73.1127    1.4562 C.ar    1  UNL1        0.0869
     21 C          24.8367   72.6304    1.8837 C.ar    1  UNL1        0.0795
     22 C          24.9804   71.1757    2.0995 C.ar    1  UNL1        0.2626
     23 H          23.9050   69.4631    1.9612 H       1  UNL1        0.1734
     24 O          22.1717   72.2068   -4.3792 O.3     1  UNL1       -0.2703
     25 P          21.6627   72.8332   -5.7800 P.3     1  UNL1        0.2208
     26 O          22.6464   72.1510   -6.8695 O.co2   1  UNL1       -0.4371
     27 O          21.6480   74.3341   -5.8141 O.2     1  UNL1       -0.5170
     28 O          20.2275   72.1436   -6.0392 O.3     1  UNL1       -0.2858
     29 O          19.4635   69.9845   -5.4362 O.3     1  UNL1       -0.3226
     30 O          17.3691   70.6719   -8.9303 O.3     1  UNL1       -0.3794
     31 O          20.1871   71.4135   -8.7227 O.3     1  UNL1       -0.3775
     32 O          16.0265   70.8767   -6.3600 O.3     1  UNL1       -0.3792
     33 C          18.0175   71.0255   -7.7087 C.3     1  UNL1        0.1718
     34 C          19.4891   70.6160   -7.7732 C.3     1  UNL1        0.1968
     35 C          17.3101   70.2905   -6.5679 C.3     1  UNL1        0.1723
     36 C          20.1595   70.7671   -6.4070 C.3     1  UNL1        0.2706
     37 C          18.1047   70.3827   -5.2684 C.3     1  UNL1        0.1830
     38 H          17.8017   71.1273   -9.6698 H       1  UNL1        0.2105
     39 H          19.7669   71.3226   -9.5919 H       1  UNL1        0.2106
     40 H          15.5107   70.8246   -7.1798 H       1  UNL1        0.2106
     41 O          18.4068   69.3588   -3.1799 O.co2   1  UNL1       -0.5466
     42 O          16.5747   68.7384   -4.3871 O.co2   1  UNL1       -0.5466
     43 C          17.5906   69.4056   -4.2618 C.2     1  UNL1        0.0799
@<TRIPOS>UNITY_ATOM_ATTR
2 1
charge -1
26 1
charge -1
41 1
charge -1
@<TRIPOS>BOND
     1     1     4    1
     2     1    24    1
     3     1     2    1
     4     1     3    2
     5    25    28    1
     6    25    24    1
     7    25    26    1
     8    25    27    2
     9     6    11    1
    10     6    12    1
    11    29    36    1
    12    29    37    1
    13     7     9    1
    14     7    13    1
    15     8    10    1
    16     8    14    1
    17     4     5    1
    18    28    36    1
    19    30    33    1
    20    30    38    1
    21    31    34    1
    22    31    39    1
    23    32    35    1
    24    32    40    1
    25    41    43   ar
    26    15    19    2
    27    42    43   ar
    28    16    22    2
    29    17    12    1
    30    17    19   ar
    31    17    20   ar
    32    18    19   ar
    33    18    22   ar
    34    18    23    1
    35     9    10    1
    36     9    11    1
    37    10    12    1
    38    11     5    1
    39    33    34    1
    40    33    35    1
    41    34    36    1
    42    35    37    1
    43    37    43    1
    44    20    21   ar
    45    21    22   ar
@<TRIPOS>MOLECULE
*****
 43 45 0 0 0
SMALL
GASTEIGER

@<TRIPOS>ATOM
      1 P          23.3014   73.5970   -4.1558 P.3     1  UNL1        0.2189
      2 O          23.1668   74.6371   -5.3883 O.co2   1  UNL1       -0.4371
      3 O          24.5964   72.8406   -4.1037 O.2     1  UNL1       -0.5170
      4 O          21.9636   72.6932   -4.2624 O.3     1  UNL1       -0.3112
      5 C          20.7054   73.3419   -4.2350 C.3     1  UNL1        0.1811
      6 O          18.6931   72.0783   -4.5980 O.3     1  UNL1       -0.3308
      7 O          19.4268   70.5517   -2.1236 O.3     1  UNL1       -0.3794
      8 O          20.2008   68.8610   -4.1182 O.3     1  UNL1       -0.3779
      9 C          20.2748   71.0860   -3.1404 C.3     1  UNL1        0.1713
     10 C          20.1810   70.2455   -4.3962 C.3     1  UNL1        0.1895
     11 C          19.6811   72.4110   -3.5988 C.3     1  UNL1        0.1764
     12 C          18.8581   70.7049   -4.9851 C.3     1  UNL1        0.2383
     13 H          19.7858   69.7046   -1.8148 H       1  UNL1        0.2105
     14 H          21.0635   68.6184   -3.7456 H       1  UNL1        0.2106
     15 O          16.6832   69.7137   -6.4897 O.2     1  UNL1       -0.2464
     16 O          18.8852   70.4169  -10.4772 O.2     1  UNL1       -0.2670
     17 N          18.8363   70.6177   -6.4178 N.ar    1  UNL1       -0.2551
     18 N          17.7824   70.0639   -8.4742 N.ar    1  UNL1       -0.2743
     19 C          17.6942   70.1042   -7.0765 C.ar    1  UNL1        0.3323
     20 C          19.9361   71.0394   -7.1551 C.ar    1  UNL1        0.0869
     21 C          20.0054   70.9950   -8.4870 C.ar    1  UNL1        0.0795
     22 C          18.8546   70.4711   -9.2515 C.ar    1  UNL1        0.2626
     23 H          17.0001   69.7084   -8.9548 H       1  UNL1        0.1734
     24 O          23.0111   74.5249   -2.8645 O.3     1  UNL1       -0.2703
     25 P          24.0197   75.2358   -1.8200 P.3     1  UNL1        0.2208
     26 O          23.0868   76.3482   -1.1039 O.co2   1  UNL1       -0.4371
     27 O          25.2679   75.7862   -2.4468 O.2     1  UNL1       -0.5170
     28 O          24.2772   74.1248   -0.6790 O.3     1  UNL1       -0.2858
     29 O          22.4915   73.2695    0.6205 O.3     1  UNL1       -0.3226
     30 O          25.7652   72.2906    2.9427 O.3     1  UNL1       -0.3794
     31 O          25.6000   74.9009    1.6413 O.3     1  UNL1       -0.3775
     32 O          24.4173   70.2409    1.3830 O.3     1  UNL1       -0.3792
     33 C          25.0557   72.5383    1.7289 C.3     1  UNL1        0.1718
     34 C          24.5255   73.9723    1.7295 C.3     1  UNL1        0.1968
     35 C          23.8967   71.5423    1.6471 C.3     1  UNL1        0.1723
     36 C          23.5705   74.2029    0.5575 C.3     1  UNL1        0.2706
     37 C          22.9215   71.9128    0.5334 C.3     1  UNL1        0.1830
     38 H          26.5067   72.9120    3.0165 H       1  UNL1        0.2105
     39 H          26.2102   74.7601    2.3817 H       1  UNL1        0.2106
     40 H          25.0396   69.9931    2.0845 H       1  UNL1        0.2106
     41 O          20.5875   71.9110    0.3006 O.co2   1  UNL1       -0.5466
     42 O          21.5589   69.9913    1.0555 O.co2   1  UNL1       -0.5466
     43 C          21.6456   71.1472    0.6691 C.2     1  UNL1        0.0799
@<TRIPOS>UNITY_ATOM_ATTR
2 1
charge -1
26 1
charge -1
41 1
charge -1
@<TRIPOS>BOND
     1     1     4    1
     2     1    24    1
     3     1     2    1
     4     1     3    2
     5    25    28    1
     6    25    24    1
     7    25    26    1
     8    25    27    2
     9     6    11    1
    10     6    12    1
    11    29    36    1
    12    29    37    1
    13     7     9    1
    14     7    13    1
    15     8    10    1
    16     8    14    1
    17     4     5    1
    18    28    36    1
    19    30    33    1
    20    30    38    1
    21    31    34    1
    22    31    39    1
    23    32    35    1
    24    32    40    1
    25    41    43   ar
    26    15    19    2
    27    42    43   ar
    28    16    22    2
    29    17    12    1
    30    17    19   ar
    31    17    20   ar
    32    18    19   ar
    33    18    22   ar
    34    18    23    1
    35     9    10    1
    36     9    11    1
    37    10    12    1
    38    11     5    1
    39    33    34    1
    40    33    35    1
    41    34    36    1
    42    35    37    1
    43    37    43    1
    44    20    21   ar
    45    21    22   ar
@<TRIPOS>MOLECULE
*****
 43 45 0 0 0
SMALL
GASTEIGER

@<TRIPOS>ATOM
      1 P          22.0805   73.1127   -4.8918 P.3     1  UNL1        0.2189
      2 O          21.9826   74.6626   -5.3469 O.co2   1  UNL1       -0.4371
      3 O          23.0835   72.2923   -5.6486 O.2     1  UNL1       -0.5170
      4 O          20.5507   72.5904   -4.9599 O.3     1  UNL1       -0.3112
      5 C          20.0888   71.7165   -3.9462 C.3     1  UNL1        0.1811
      6 O          18.0933   72.0685   -5.2391 O.3     1  UNL1       -0.3308
      7 O          16.6329   70.6800   -3.0186 O.3     1  UNL1       -0.3794
      8 O          16.8550   68.7207   -4.9022 O.3     1  UNL1       -0.3779
      9 C          17.9358   70.4226   -3.5429 C.3     1  UNL1        0.1713
     10 C          17.8330   69.7395   -4.8901 C.3     1  UNL1        0.1895
     11 C          18.5666   71.7588   -3.9104 C.3     1  UNL1        0.1764
     12 C          17.4805   70.8994   -5.8058 C.3     1  UNL1        0.2383
     13 H          16.2099   69.8408   -2.7765 H       1  UNL1        0.2105
     14 H          17.1256   68.0057   -4.3043 H       1  UNL1        0.2106
     15 O          15.8419   70.5393   -8.0777 O.2     1  UNL1       -0.2464
     16 O          19.4865   70.1954  -10.8781 O.2     1  UNL1       -0.2670
     17 N          17.9750   70.7135   -7.1407 N.ar    1  UNL1       -0.2551
     18 N          17.6587   70.3673   -9.4701 N.ar    1  UNL1       -0.2743
     19 C          17.0669   70.5411   -8.2121 C.ar    1  UNL1        0.3323
     20 C          19.3440   70.7050   -7.3783 C.ar    1  UNL1        0.0869
     21 C          19.8932   70.5383   -8.5831 C.ar    1  UNL1        0.0795
     22 C          19.0143   70.3508   -9.7560 C.ar    1  UNL1        0.2626
     23 H          17.0467   70.2433  -10.2313 H       1  UNL1        0.1734
     24 O          22.3582   73.2179   -3.3029 O.3     1  UNL1       -0.2703
     25 P          22.2950   74.4810   -2.2957 P.3     1  UNL1        0.2208
     26 O          20.8667   75.1593   -2.6421 O.co2   1  UNL1       -0.4371
     27 O          23.4657   75.4146   -2.4047 O.2     1  UNL1       -0.5170
     28 O          22.0924   73.8291   -0.8340 O.3     1  UNL1       -0.2858
     29 O          23.4617   73.6997    1.0941 O.3     1  UNL1       -0.3226
     30 O          21.6243   69.9996    1.1180 O.3     1  UNL1       -0.3794
     31 O          22.6033   71.1506   -1.3822 O.3     1  UNL1       -0.3775
     32 O          20.7661   72.0670    2.9728 O.3     1  UNL1       -0.3792
     33 C          21.7289   71.4010    0.8670 C.3     1  UNL1        0.1718
     34 C          22.8939   71.6644   -0.0875 C.3     1  UNL1        0.1968
     35 C          21.9675   72.1046    2.2049 C.3     1  UNL1        0.1723
     36 C          23.1818   73.1622   -0.1991 C.3     1  UNL1        0.2706
     37 C          22.3722   73.5620    2.0035 C.3     1  UNL1        0.1830
     38 H          21.4725   69.5316    0.2818 H       1  UNL1        0.2105
     39 H          22.4194   70.2006   -1.3188 H       1  UNL1        0.2106
     40 H          20.4975   71.1448    3.1080 H       1  UNL1        0.2106
     41 O          22.0664   73.9176    4.3017 O.co2   1  UNL1       -0.5466
     42 O          23.9801   74.7338    3.3685 O.co2   1  UNL1       -0.5466
     43 C          22.9162   74.1412    3.2688 C.2     1  UNL1        0.0799
@<TRIPOS>UNITY_ATOM_ATTR
2 1
charge -1
26 1
charge -1
41 1
charge -1
@<TRIPOS>BOND
     1     1     4    1
     2     1    24    1
     3     1     2    1
     4     1     3    2
     5    25    28    1
     6    25    24    1
     7    25    26    1
     8    25    27    2
     9     6    11    1
    10     6    12    1
    11    29    36    1
    12    29    37    1
    13     7     9    1
    14     7    13    1
    15     8    10    1
    16     8    14    1
    17     4     5    1
    18    28    36    1
    19    30    33    1
    20    30    38    1
    21    31    34    1
    22    31    39    1
    23    32    35    1
    24    32    40    1
    25    41    43   ar
    26    15    19    2
    27    42    43   ar
    28    16    22    2
    29    17    12    1
    30    17    19   ar
    31    17    20   ar
    32    18    19   ar
    33    18    22   ar
    34    18    23    1
    35     9    10    1
    36     9    11    1
    37    10    12    1
    38    11     5    1
    39    33    34    1
    40    33    35    1
    41    34    36    1
    42    35    37    1
    43    37    43    1
    44    20    21   ar
    45    21    22   ar
@<TRIPOS>MOLECULE
*****
 43 45 0 0 0
SMALL
GASTEIGER

@<TRIPOS>ATOM
      1 P          20.5436   71.8047   -0.9890 P.3     1  UNL1        0.2189
      2 O          20.8286   70.6219    0.0781 O.co2   1  UNL1       -0.4371
      3 O          19.1585   72.3802   -0.9420 O.2     1  UNL1       -0.5170
      4 O          20.9912   71.1655   -2.4063 O.3     1  UNL1       -0.3112
      5 C          20.5016   71.7532   -3.5978 C.3     1  UNL1        0.1811
      6 O          20.8740   70.6839   -5.7180 O.3     1  UNL1       -0.3308
      7 O          23.1933   72.5562   -6.0449 O.3     1  UNL1       -0.3794
      8 O          21.2666   73.7197   -7.5845 O.3     1  UNL1       -0.3779
      9 C          21.9229   72.7889   -5.4362 C.3     1  UNL1        0.1713
     10 C          20.8502   72.9215   -6.4963 C.3     1  UNL1        0.1895
     11 C          21.5052   71.5128   -4.7182 C.3     1  UNL1        0.1764
     12 C          20.6148   71.4732   -6.8898 C.3     1  UNL1        0.2383
     13 H          23.4811   73.3578   -6.5099 H       1  UNL1        0.2105
     14 H          21.4028   74.6321   -7.2827 H       1  UNL1        0.2106
     15 O          19.8775   69.5449   -8.8171 O.2     1  UNL1       -0.2464
     16 O          15.4151   70.6479   -8.4801 O.2     1  UNL1       -0.2670
     17 N          19.2674   71.2354   -7.3244 N.ar    1  UNL1       -0.2551
     18 N          17.6558   70.0968   -8.6482 N.ar    1  UNL1       -0.2743
     19 C          19.0046   70.2431   -8.2982 C.ar    1  UNL1        0.3323
     20 C          18.2239   71.9790   -6.7867 C.ar    1  UNL1        0.0869
     21 C          16.9432   71.8280   -7.1303 C.ar    1  UNL1        0.0795
     22 C          16.5832   70.8129   -8.1419 C.ar    1  UNL1        0.2626
     23 H          17.4483   69.4134   -9.3259 H       1  UNL1        0.1734
     24 O          21.7240   72.8648   -0.6795 O.3     1  UNL1       -0.2703
     25 P          22.9097   72.8422    0.4192 P.3     1  UNL1        0.2208
     26 O          24.0411   73.7953   -0.2380 O.co2   1  UNL1       -0.4371
     27 O          23.3919   71.4661    0.7767 O.2     1  UNL1       -0.5170
     28 O          22.3323   73.6932    1.6622 O.3     1  UNL1       -0.2858
     29 O          22.2132   72.9726    3.9151 O.3     1  UNL1       -0.3226
     30 O          19.1402   75.7290    3.7505 O.3     1  UNL1       -0.3794
     31 O          19.5569   73.8431    1.5586 O.3     1  UNL1       -0.3775
     32 O          21.6484   76.4158    5.0497 O.3     1  UNL1       -0.3792
     33 C          20.4064   75.1668    3.4059 C.3     1  UNL1        0.1718
     34 C          20.2037   73.7676    2.8238 C.3     1  UNL1        0.1968
     35 C          21.2545   75.0964    4.6778 C.3     1  UNL1        0.1723
     36 C          21.5414   73.0454    2.6570 C.3     1  UNL1        0.2706
     37 C          22.5092   74.2545    4.4648 C.3     1  UNL1        0.1830
     38 H          18.5839   75.7835    2.9576 H       1  UNL1        0.2105
     39 H          18.7075   74.3005    1.6570 H       1  UNL1        0.2106
     40 H          20.8590   76.9621    5.1881 H       1  UNL1        0.2106
     41 O          24.2256   74.7155    5.9955 O.co2   1  UNL1       -0.5466
     42 O          22.7661   73.0503    6.5397 O.co2   1  UNL1       -0.5466
     43 C          23.1511   73.9190    5.7716 C.2     1  UNL1        0.0799
@<TRIPOS>UNITY_ATOM_ATTR
2 1
charge -1
26 1
charge -1
41 1
charge -1
@<TRIPOS>BOND
     1     1     4    1
     2     1    24    1
     3     1     2    1
     4     1     3    2
     5    25    28    1
     6    25    24    1
     7    25    26    1
     8    25    27    2
     9     6    11    1
    10     6    12    1
    11    29    36    1
    12    29    37    1
    13     7     9    1
    14     7    13    1
    15     8    10    1
    16     8    14    1
    17     4     5    1
    18    28    36    1
    19    30    33    1
    20    30    38    1
    21    31    34    1
    22    31    39    1
    23    32    35    1
    24    32    40    1
    25    41    43   ar
    26    15    19    2
    27    42    43   ar
    28    16    22    2
    29    17    12    1
    30    17    19   ar
    31    17    20   ar
    32    18    19   ar
    33    18    22   ar
    34    18    23    1
    35     9    10    1
    36     9    11    1
    37    10    12    1
    38    11     5    1
    39    33    34    1
    40    33    35    1
    41    34    36    1
    42    35    37    1
    43    37    43    1
    44    20    21   ar
    45    21    22   ar
@<TRIPOS>MOLECULE
*****
 43 45 0 0 0
SMALL
GASTEIGER

@<TRIPOS>ATOM
      1 P          23.2935   72.1361   -3.5172 P.3     1  UNL1        0.2189
      2 O          23.7304   70.6333   -3.1053 O.co2   1  UNL1       -0.4371
      3 O          24.4004   72.9911   -4.0609 O.2     1  UNL1       -0.5170
      4 O          22.5537   72.7020   -2.1942 O.3     1  UNL1       -0.3112
      5 C          23.2973   72.8000   -0.9934 C.3     1  UNL1        0.1811
      6 O          24.3333   71.2834    0.5572 O.3     1  UNL1       -0.3308
      7 O          21.5709   70.2579    1.1128 O.3     1  UNL1       -0.3794
      8 O          22.0380   71.8957    3.2425 O.3     1  UNL1       -0.3779
      9 C          22.0005   71.5900    0.8306 C.3     1  UNL1        0.1713
     10 C          22.7093   72.1778    2.0324 C.3     1  UNL1        0.1895
     11 C          23.1228   71.5141   -0.1956 C.3     1  UNL1        0.1764
     12 C          24.0726   71.5124    1.9511 C.3     1  UNL1        0.2383
     13 H          20.8539   70.2807    1.7663 H       1  UNL1        0.2105
     14 H          21.1760   72.3418    3.2457 H       1  UNL1        0.2106
     15 O          26.7160   70.6334    2.4160 O.2     1  UNL1       -0.2464
     16 O          27.9968   74.7556    4.0318 O.2     1  UNL1       -0.2670
     17 N          25.1170   72.3352    2.4925 N.ar    1  UNL1       -0.2551
     18 N          27.3512   72.6871    3.2213 N.ar    1  UNL1       -0.2743
     19 C          26.4108   71.7963    2.6870 C.ar    1  UNL1        0.3323
     20 C          24.8560   73.6594    2.8229 C.ar    1  UNL1        0.0869
     21 C          25.7626   74.4963    3.3312 C.ar    1  UNL1        0.0795
     22 C          27.1387   74.0120    3.5661 C.ar    1  UNL1        0.2626
     23 H          28.2586   72.3341    3.3676 H       1  UNL1        0.1734
     24 O          22.0677   71.8897   -4.5417 O.3     1  UNL1       -0.2703
     25 P          21.4625   72.8212   -5.7162 P.3     1  UNL1        0.2208
     26 O          22.4596   72.5421   -6.9605 O.co2   1  UNL1       -0.4371
     27 O          21.3270   74.2697   -5.3453 O.2     1  UNL1       -0.5170
     28 O          20.0788   72.1050   -6.1346 O.3     1  UNL1       -0.2858
     29 O          19.3792   69.9150   -5.5661 O.3     1  UNL1       -0.3226
     30 O          17.3894   70.5336   -9.1334 O.3     1  UNL1       -0.3794
     31 O          20.1664   71.3849   -8.8197 O.3     1  UNL1       -0.3775
     32 O          15.9460   70.6747   -6.6140 O.3     1  UNL1       -0.3792
     33 C          17.9779   70.9074   -7.8877 C.3     1  UNL1        0.1718
     34 C          19.4660   70.5566   -7.8989 C.3     1  UNL1        0.1968
     35 C          17.2586   70.1404   -6.7758 C.3     1  UNL1        0.1723
     36 C          20.0791   70.7284   -6.5084 C.3     1  UNL1        0.2706
     37 C          18.0005   70.2586   -5.4476 C.3     1  UNL1        0.1830
     38 H          17.8307   71.0087   -9.8551 H       1  UNL1        0.2105
     39 H          19.7824   71.2811   -9.7041 H       1  UNL1        0.2106
     40 H          15.4632   70.6056   -7.4524 H       1  UNL1        0.2106
     41 O          16.2997   68.7495   -4.8717 O.co2   1  UNL1       -0.5466
     42 O          18.0578   68.9343   -3.4315 O.co2   1  UNL1       -0.5466
     43 C          17.4887   69.2578   -4.4633 C.2     1  UNL1        0.0799
@<TRIPOS>UNITY_ATOM_ATTR
2 1
charge -1
26 1
charge -1
41 1
charge -1
@<TRIPOS>BOND
     1     1     4    1
     2     1    24    1
     3     1     2    1
     4     1     3    2
     5    25    28    1
     6    25    24    1
     7    25    26    1
     8    25    27    2
     9     6    11    1
    10     6    12    1
    11    29    36    1
    12    29    37    1
    13     7     9    1
    14     7    13    1
    15     8    10    1
    16     8    14    1
    17     4     5    1
    18    28    36    1
    19    30    33    1
    20    30    38    1
    21    31    34    1
    22    31    39    1
    23    32    35    1
    24    32    40    1
    25    41    43   ar
    26    15    19    2
    27    42    43   ar
    28    16    22    2
    29    17    12    1
    30    17    19   ar
    31    17    20   ar
    32    18    19   ar
    33    18    22   ar
    34    18    23    1
    35     9    10    1
    36     9    11    1
    37    10    12    1
    38    11     5    1
    39    33    34    1
    40    33    35    1
    41    34    36    1
    42    35    37    1
    43    37    43    1
    44    20    21   ar
    45    21    22   ar
@<TRIPOS>MOLECULE
*****
 43 45 0 0 0
SMALL
GASTEIGER

@<TRIPOS>ATOM
      1 P          21.8615   72.4996   -5.6719 P.3     1  UNL1        0.2189
      2 O          21.3097   73.9660   -5.2667 O.co2   1  UNL1       -0.4371
      3 O          23.0617   72.5010   -6.5726 O.2     1  UNL1       -0.5170
      4 O          20.5543   71.7371   -6.2443 O.3     1  UNL1       -0.3112
      5 C          20.1005   72.0581   -7.5465 C.3     1  UNL1        0.1811
      6 O          18.9490   69.9938   -7.1101 O.3     1  UNL1       -0.3308
      7 O          18.1371   70.0523   -9.9960 O.3     1  UNL1       -0.3794
      8 O          15.8928   70.9413   -8.7275 O.3     1  UNL1       -0.3779
      9 C          18.2910   71.1354   -9.0785 C.3     1  UNL1        0.1713
     10 C          17.1379   71.1592   -8.0976 C.3     1  UNL1        0.1895
     11 C          19.4733   70.8192   -8.1727 C.3     1  UNL1        0.1764
     12 C          17.5137   70.0397   -7.1418 C.3     1  UNL1        0.2383
     13 H          17.3874   70.2316  -10.5855 H       1  UNL1        0.2105
     14 H          15.6989   71.6811   -9.3251 H       1  UNL1        0.2106
     15 O          16.1940   68.0966   -5.5736 O.2     1  UNL1       -0.2464
     16 O          15.6788   71.0248   -2.0516 O.2     1  UNL1       -0.2670
     17 N          17.0242   70.2675   -5.8116 N.ar    1  UNL1       -0.2551
     18 N          15.9377   69.5572   -3.8214 N.ar    1  UNL1       -0.2743
     19 C          16.3752   69.2241   -5.1101 C.ar    1  UNL1        0.3323
     20 C          17.1903   71.5114   -5.2150 C.ar    1  UNL1        0.0869
     21 C          16.7680   71.8138   -3.9858 C.ar    1  UNL1        0.0795
     22 C          16.0792   70.7800   -3.1856 C.ar    1  UNL1        0.2626
     23 H          15.4811   68.8475   -3.3141 H       1  UNL1        0.1734
     24 O          22.0965   71.7913   -4.2380 O.3     1  UNL1       -0.2703
     25 P          23.3196   71.9030   -3.1868 P.3     1  UNL1        0.2208
     26 O          24.0558   73.2779   -3.6205 O.co2   1  UNL1       -0.4371
     27 O          24.2197   70.7017   -3.1593 O.2     1  UNL1       -0.5170
     28 O          22.6166   72.2452   -1.7757 O.3     1  UNL1       -0.2858
     29 O          22.5585   74.0910   -0.2929 O.3     1  UNL1       -0.3226
     30 O          22.9741   70.9223    2.3252 O.3     1  UNL1       -0.3794
     31 O          24.5079   71.0010   -0.1599 O.3     1  UNL1       -0.3775
     32 O          20.3997   72.2386    2.0245 O.3     1  UNL1       -0.3792
     33 C          22.5405   71.5815    1.1355 C.3     1  UNL1        0.1718
     34 C          23.7560   72.0910    0.3606 C.3     1  UNL1        0.1968
     35 C          21.6411   72.7505    1.5436 C.3     1  UNL1        0.1723
     36 C          23.3279   72.9974   -0.7944 C.3     1  UNL1        0.2706
     37 C          21.3624   73.6772    0.3638 C.3     1  UNL1        0.1830
     38 H          23.5474   70.1756    2.0907 H       1  UNL1        0.2105
     39 H          24.7826   70.4216    0.5676 H       1  UNL1        0.2106
     40 H          20.5630   71.6470    2.7756 H       1  UNL1        0.2106
     41 O          21.6833   75.6831    1.5364 O.co2   1  UNL1       -0.5466
     42 O          19.6287   75.3371    0.6100 O.co2   1  UNL1       -0.5466
     43 C          20.7724   74.9680    0.8309 C.2     1  UNL1        0.0799
@<TRIPOS>UNITY_ATOM_ATTR
2 1
charge -1
26 1
charge -1
41 1
charge -1
@<TRIPOS>BOND
     1     1     4    1
     2     1    24    1
     3     1     2    1
     4     1     3    2
     5    25    28    1
     6    25    24    1
     7    25    26    1
     8    25    27    2
     9     6    11    1
    10     6    12    1
    11    29    36    1
    12    29    37    1
    13     7     9    1
    14     7    13    1
    15     8    10    1
    16     8    14    1
    17     4     5    1
    18    28    36    1
    19    30    33    1
    20    30    38    1
    21    31    34    1
    22    31    39    1
    23    32    35    1
    24    32    40    1
    25    41    43   ar
    26    15    19    2
    27    42    43   ar
    28    16    22    2
    29    17    12    1
    30    17    19   ar
    31    17    20   ar
    32    18    19   ar
    33    18    22   ar
    34    18    23    1
    35     9    10    1
    36     9    11    1
    37    10    12    1
    38    11     5    1
    39    33    34    1
    40    33    35    1
    41    34    36    1
    42    35    37    1
    43    37    43    1
    44    20    21   ar
    45    21    22   ar
@<TRIPOS>MOLECULE
*****
 43 45 0 0 0
SMALL
GASTEIGER

@<TRIPOS>ATOM
      1 P          21.8281   71.3935   -0.3714 P.3     1  UNL1        0.2189
      2 O          21.0441   70.3703    0.6070 O.co2   1  UNL1       -0.4371
      3 O          23.2821   71.0846   -0.5773 O.2     1  UNL1       -0.5170
      4 O          21.5006   72.8517    0.2486 O.3     1  UNL1       -0.3112
      5 C          21.9888   73.1622    1.5408 C.3     1  UNL1        0.1811
      6 O          22.8349   75.1435    2.6067 O.3     1  UNL1       -0.3308
      7 O          25.2078   74.8814    0.7923 O.3     1  UNL1       -0.3794
      8 O          26.1436   73.8726    3.1466 O.3     1  UNL1       -0.3779
      9 C          24.4324   73.8595    1.4193 C.3     1  UNL1        0.1713
     10 C          24.7562   73.7878    2.8965 C.3     1  UNL1        0.1895
     11 C          22.9794   74.3143    1.4333 C.3     1  UNL1        0.1764
     12 C          23.9891   74.9785    3.4457 C.3     1  UNL1        0.2383
     13 H          26.1403   74.6134    0.7716 H       1  UNL1        0.2105
     14 H          26.5869   73.0919    2.7781 H       1  UNL1        0.2106
     15 O          22.9223   72.5566    4.4320 O.2     1  UNL1       -0.2464
     16 O          22.3642   74.3111    8.6574 O.2     1  UNL1       -0.2670
     17 N          23.5570   74.7748    4.7995 N.ar    1  UNL1       -0.2551
     18 N          22.6444   73.4331    6.5353 N.ar    1  UNL1       -0.2743
     19 C          23.0357   73.5196    5.1928 C.ar    1  UNL1        0.3323
     20 C          23.6531   75.8101    5.7214 C.ar    1  UNL1        0.0869
     21 C          23.2762   75.7125    6.9978 C.ar    1  UNL1        0.0795
     22 C          22.7200   74.4349    7.4894 C.ar    1  UNL1        0.2626
     23 H          22.2764   72.5694    6.8320 H       1  UNL1        0.1734
     24 O          20.9358   71.3628   -1.7188 O.3     1  UNL1       -0.2703
     25 P          21.0535   72.2119   -3.0895 P.3     1  UNL1        0.2208
     26 O          22.2588   71.4743   -3.8791 O.co2   1  UNL1       -0.4371
     27 O          21.2582   73.6851   -2.8856 O.2     1  UNL1       -0.5170
     28 O          19.7265   71.8294   -3.9232 O.3     1  UNL1       -0.2858
     29 O          18.6210   69.7883   -4.3933 O.3     1  UNL1       -0.3226
     30 O          18.1938   71.8182   -7.9662 O.3     1  UNL1       -0.3794
     31 O          20.7293   71.8889   -6.5168 O.3     1  UNL1       -0.3775
     32 O          15.9390   71.5752   -6.1473 O.3     1  UNL1       -0.3792
     33 C          18.3121   71.6837   -6.5499 C.3     1  UNL1        0.1718
     34 C          19.6461   71.0192   -6.2086 C.3     1  UNL1        0.1968
     35 C          17.1470   70.8221   -6.0577 C.3     1  UNL1        0.1723
     36 C          19.7100   70.6503   -4.7258 C.3     1  UNL1        0.2706
     37 C          17.3466   70.3910   -4.6076 C.3     1  UNL1        0.1830
     38 H          18.9238   72.3621   -8.3016 H       1  UNL1        0.2105
     39 H          20.6947   72.1273   -7.4562 H       1  UNL1        0.2106
     40 H          15.8003   71.8558   -7.0654 H       1  UNL1        0.2106
     41 O          16.2913   68.3971   -5.2496 O.co2   1  UNL1       -0.5466
     42 O          15.7881   69.2220   -3.1843 O.co2   1  UNL1       -0.5466
     43 C          16.3938   69.2996   -4.2427 C.2     1  UNL1        0.0799
@<TRIPOS>UNITY_ATOM_ATTR
2 1
charge -1
26 1
charge -1
41 1
charge -1
@<TRIPOS>BOND
     1     1     4    1
     2     1    24    1
     3     1     2    1
     4     1     3    2
     5    25    28    1
     6    25    24    1
     7    25    26    1
     8    25    27    2
     9     6    11    1
    10     6    12    1
    11    29    36    1
    12    29    37    1
    13     7     9    1
    14     7    13    1
    15     8    10    1
    16     8    14    1
    17     4     5    1
    18    28    36    1
    19    30    33    1
    20    30    38    1
    21    31    34    1
    22    31    39    1
    23    32    35    1
    24    32    40    1
    25    41    43   ar
    26    15    19    2
    27    42    43   ar
    28    16    22    2
    29    17    12    1
    30    17    19   ar
    31    17    20   ar
    32    18    19   ar
    33    18    22   ar
    34    18    23    1
    35     9    10    1
    36     9    11    1
    37    10    12    1
    38    11     5    1
    39    33    34    1
    40    33    35    1
    41    34    36    1
    42    35    37    1
    43    37    43    1
    44    20    21   ar
    45    21    22   ar
@<TRIPOS>MOLECULE
*****
 43 45 0 0 0
SMALL
GASTEIGER

@<TRIPOS>ATOM
      1 P          21.8148   72.4566   -5.5344 P.3     1  UNL1        0.2189
      2 O          21.1589   73.8985   -5.2032 O.co2   1  UNL1       -0.4371
      3 O          23.0460   72.5024   -6.3910 O.2     1  UNL1       -0.5170
      4 O          20.5796   71.5944   -6.1251 O.3     1  UNL1       -0.3112
      5 C          20.0752   71.9256   -7.4058 C.3     1  UNL1        0.1811
      6 O          18.7717   69.9619   -6.9340 O.3     1  UNL1       -0.3308
      7 O          18.1063   69.9280   -9.8577 O.3     1  UNL1       -0.3794
      8 O          15.8659   71.0181   -8.7493 O.3     1  UNL1       -0.3779
      9 C          18.2858   71.0434   -8.9847 C.3     1  UNL1        0.1713
     10 C          17.0905   71.1884   -8.0668 C.3     1  UNL1        0.1895
     11 C          19.3997   70.6990   -8.0054 C.3     1  UNL1        0.1764
     12 C          17.3456   70.0963   -7.0419 C.3     1  UNL1        0.2383
     13 H          17.3993   70.1246  -10.4927 H       1  UNL1        0.2105
     14 H          15.7499   71.7380   -9.3898 H       1  UNL1        0.2106
     15 O          16.4807   68.1862   -5.1498 O.2     1  UNL1       -0.2464
     16 O          15.3006   71.4530   -2.1201 O.2     1  UNL1       -0.2670
     17 N          16.8081   70.4201   -5.7508 N.ar    1  UNL1       -0.2551
     18 N          15.8928   69.8152   -3.6431 N.ar    1  UNL1       -0.2743
     19 C          16.4028   69.3852   -4.8752 C.ar    1  UNL1        0.3323
     20 C          16.6885   71.7490   -5.3627 C.ar    1  UNL1        0.0869
     21 C          16.2006   72.1434   -4.1849 C.ar    1  UNL1        0.0795
     22 C          15.7537   71.1246   -3.2124 C.ar    1  UNL1        0.2626
     23 H          15.6022   69.1127   -3.0174 H       1  UNL1        0.1734
     24 O          22.0382   71.8141   -4.0681 O.3     1  UNL1       -0.2703
     25 P          23.2838   71.9169   -3.0427 P.3     1  UNL1        0.2208
     26 O          23.9499   73.3453   -3.4121 O.co2   1  UNL1       -0.4371
     27 O          24.2335   70.7561   -3.1091 O.2     1  UNL1       -0.5170
     28 O          22.6059   72.1455   -1.5968 O.3     1  UNL1       -0.2858
     29 O          23.4053   70.7145    0.1127 O.3     1  UNL1       -0.3226
     30 O          20.1474   72.4747    1.9447 O.3     1  UNL1       -0.3794
     31 O          19.9870   71.5974   -0.8372 O.3     1  UNL1       -0.3775
     32 O          22.8423   73.3167    2.6374 O.3     1  UNL1       -0.3792
     33 C          21.2653   72.4064    1.0595 C.3     1  UNL1        0.1718
     34 C          21.0515   71.2773    0.0512 C.3     1  UNL1        0.1968
     35 C          22.5174   72.1408    1.8984 C.3     1  UNL1        0.1723
     36 C          22.3207   71.0235   -0.7634 C.3     1  UNL1        0.2706
     37 C          23.7090   71.7722    1.0194 C.3     1  UNL1        0.1830
     38 H          19.3400   72.6428    1.4338 H       1  UNL1        0.2105
     39 H          19.1785   71.7600   -0.3270 H       1  UNL1        0.2106
     40 H          22.0919   73.5622    3.2009 H       1  UNL1        0.2106
     41 O          25.6109   72.1882    2.3276 O.co2   1  UNL1       -0.5466
     42 O          24.9927   70.0106    2.0540 O.co2   1  UNL1       -0.5466
     43 C          24.8181   71.2011    1.8417 C.2     1  UNL1        0.0799
@<TRIPOS>UNITY_ATOM_ATTR
2 1
charge -1
26 1
charge -1
41 1
charge -1
@<TRIPOS>BOND
     1     1     4    1
     2     1    24    1
     3     1     2    1
     4     1     3    2
     5    25    28    1
     6    25    24    1
     7    25    26    1
     8    25    27    2
     9     6    11    1
    10     6    12    1
    11    29    36    1
    12    29    37    1
    13     7     9    1
    14     7    13    1
    15     8    10    1
    16     8    14    1
    17     4     5    1
    18    28    36    1
    19    30    33    1
    20    30    38    1
    21    31    34    1
    22    31    39    1
    23    32    35    1
    24    32    40    1
    25    41    43   ar
    26    15    19    2
    27    42    43   ar
    28    16    22    2
    29    17    12    1
    30    17    19   ar
    31    17    20   ar
    32    18    19   ar
    33    18    22   ar
    34    18    23    1
    35     9    10    1
    36     9    11    1
    37    10    12    1
    38    11     5    1
    39    33    34    1
    40    33    35    1
    41    34    36    1
    42    35    37    1
    43    37    43    1
    44    20    21   ar
    45    21    22   ar
@<TRIPOS>MOLECULE
*****
 43 45 0 0 0
SMALL
GASTEIGER

@<TRIPOS>ATOM
      1 P          20.6099   71.8307   -0.9570 P.3     1  UNL1        0.2189
      2 O          20.8019   70.6284    0.1091 O.co2   1  UNL1       -0.4371
      3 O          19.2875   72.5362   -0.8850 O.2     1  UNL1       -0.5170
      4 O          20.9657   71.1484   -2.3803 O.3     1  UNL1       -0.3112
      5 C          20.4928   71.7662   -3.5632 C.3     1  UNL1        0.1811
      6 O          20.8725   70.6914   -5.6794 O.3     1  UNL1       -0.3308
      7 O          23.1785   72.5787   -6.0138 O.3     1  UNL1       -0.3794
      8 O          21.2435   73.7228   -7.5575 O.3     1  UNL1       -0.3779
      9 C          21.9066   72.8048   -5.4058 C.3     1  UNL1        0.1713
     10 C          20.8328   72.9258   -6.4663 C.3     1  UNL1        0.1895
     11 C          21.4980   71.5286   -4.6829 C.3     1  UNL1        0.1764
     12 C          20.6077   71.4744   -6.8542 C.3     1  UNL1        0.2383
     13 H          23.4606   73.3806   -6.4819 H       1  UNL1        0.2105
     14 H          21.3733   74.6372   -7.2593 H       1  UNL1        0.2106
     15 O          19.8859   69.5465   -8.7878 O.2     1  UNL1       -0.2464
     16 O          15.4136   70.6057   -8.4400 O.2     1  UNL1       -0.2670
     17 N          19.2619   71.2254   -7.2877 N.ar    1  UNL1       -0.2551
     18 N          17.6592   70.0766   -8.6135 N.ar    1  UNL1       -0.2743
     19 C          19.0070   70.2344   -8.2649 C.ar    1  UNL1        0.3323
     20 C          18.2121   71.9569   -6.7456 C.ar    1  UNL1        0.0869
     21 C          16.9325   71.7951   -7.0878 C.ar    1  UNL1        0.0795
     22 C          16.5806   70.7805   -8.1028 C.ar    1  UNL1        0.2626
     23 H          17.4572   69.3939   -9.2935 H       1  UNL1        0.1734
     24 O          21.8923   72.7736   -0.6753 O.3     1  UNL1       -0.2703
     25 P          23.1977   72.5415    0.2498 P.3     1  UNL1        0.2208
     26 O          24.1876   73.7407   -0.1999 O.co2   1  UNL1       -0.4371
     27 O          23.7968   71.1696    0.1363 O.2     1  UNL1       -0.5170
     28 O          22.7213   72.9431    1.7378 O.3     1  UNL1       -0.2858
     29 O          21.8023   75.0500    2.3080 O.3     1  UNL1       -0.3226
     30 O          23.2325   73.7416    5.9564 O.3     1  UNL1       -0.3794
     31 O          24.8094   73.3649    3.5262 O.3     1  UNL1       -0.3775
     32 O          20.3816   73.6629    5.3934 O.3     1  UNL1       -0.3792
     33 C          22.6727   73.6031    4.6505 C.3     1  UNL1        0.1718
     34 C          23.6421   74.1737    3.6150 C.3     1  UNL1        0.1968
     35 C          21.3488   74.3701    4.6196 C.3     1  UNL1        0.1723
     36 C          22.9853   74.2533    2.2362 C.3     1  UNL1        0.2706
     37 C          20.8221   74.5152    3.1948 C.3     1  UNL1        0.1830
     38 H          24.0749   73.2622    5.9999 H       1  UNL1        0.2105
     39 H          25.2311   73.3098    4.3977 H       1  UNL1        0.2106
     40 H          20.7047   73.5636    6.3026 H       1  UNL1        0.2106
     41 O          18.5130   74.9241    3.1482 O.co2   1  UNL1       -0.5466
     42 O          19.8922   76.7387    3.0835 O.co2   1  UNL1       -0.5466
     43 C          19.7265   75.5292    3.1349 C.2     1  UNL1        0.0799
@<TRIPOS>UNITY_ATOM_ATTR
2 1
charge -1
26 1
charge -1
41 1
charge -1
@<TRIPOS>BOND
     1     1     4    1
     2     1    24    1
     3     1     2    1
     4     1     3    2
     5    25    28    1
     6    25    24    1
     7    25    26    1
     8    25    27    2
     9     6    11    1
    10     6    12    1
    11    29    36    1
    12    29    37    1
    13     7     9    1
    14     7    13    1
    15     8    10    1
    16     8    14    1
    17     4     5    1
    18    28    36    1
    19    30    33    1
    20    30    38    1
    21    31    34    1
    22    31    39    1
    23    32    35    1
    24    32    40    1
    25    41    43   ar
    26    15    19    2
    27    42    43   ar
    28    16    22    2
    29    17    12    1
    30    17    19   ar
    31    17    20   ar
    32    18    19   ar
    33    18    22   ar
    34    18    23    1
    35     9    10    1
    36     9    11    1
    37    10    12    1
    38    11     5    1
    39    33    34    1
    40    33    35    1
    41    34    36    1
    42    35    37    1
    43    37    43    1
    44    20    21   ar
    45    21    22   ar
@<TRIPOS>MOLECULE
*****
 43 45 0 0 0
SMALL
GASTEIGER

@<TRIPOS>ATOM
      1 P          22.8811   71.4467   -3.2460 P.3     1  UNL1        0.2189
      2 O          21.6454   70.4125   -3.0971 O.co2   1  UNL1       -0.4371
      3 O          24.2432   70.8216   -3.1702 O.2     1  UNL1       -0.5170
      4 O          22.5689   72.5868   -2.1411 O.3     1  UNL1       -0.3112
      5 C          23.3651   72.6306   -0.9712 C.3     1  UNL1        0.1811
      6 O          24.4009   71.0431    0.5068 O.3     1  UNL1       -0.3308
      7 O          21.6237   70.1197    1.1596 O.3     1  UNL1       -0.3794
      8 O          22.2458   71.6948    3.2969 O.3     1  UNL1       -0.3779
      9 C          22.0960   71.4385    0.8836 C.3     1  UNL1        0.1713
     10 C          22.8775   71.9733    2.0649 C.3     1  UNL1        0.1895
     11 C          23.1708   71.3374   -0.1901 C.3     1  UNL1        0.1764
     12 C          24.2077   71.2549    1.9143 C.3     1  UNL1        0.2383
     13 H          20.9359   70.1586    1.8431 H       1  UNL1        0.2105
     14 H          21.4038   72.1753    3.3444 H       1  UNL1        0.2106
     15 O          24.0945   74.0205    2.4759 O.2     1  UNL1       -0.2464
     16 O          28.4856   74.1018    3.8743 O.2     1  UNL1       -0.2670
     17 N          25.3067   72.0238    2.4260 N.ar    1  UNL1       -0.2551
     18 N          26.2820   74.0586    3.1709 N.ar    1  UNL1       -0.2743
     19 C          25.1453   73.4075    2.6738 C.ar    1  UNL1        0.3323
     20 C          26.5263   71.4075    2.6785 C.ar    1  UNL1        0.0869
     21 C          27.6007   72.0413    3.1524 C.ar    1  UNL1        0.0795
     22 C          27.5164   73.4887    3.4373 C.ar    1  UNL1        0.2626
     23 H          26.1945   75.0229    3.3492 H       1  UNL1        0.1734
     24 O          22.5609   72.1962   -4.6419 O.3     1  UNL1       -0.2703
     25 P          21.2779   73.0596   -5.1131 P.3     1  UNL1        0.2208
     26 O          21.9425   74.3839   -5.7649 O.co2   1  UNL1       -0.4371
     27 O          20.2882   73.3389   -4.0193 O.2     1  UNL1       -0.5170
     28 O          20.6758   72.2459   -6.3691 O.3     1  UNL1       -0.2858
     29 O          18.5816   71.3321   -5.7457 O.3     1  UNL1       -0.3226
     30 O          18.9826   69.9499   -9.6183 O.3     1  UNL1       -0.3794
     31 O          21.2657   69.9323   -7.7958 O.3     1  UNL1       -0.3775
     32 O          17.1768   72.1520   -9.0345 O.3     1  UNL1       -0.3792
     33 C          19.1534   70.8671   -8.5377 C.3     1  UNL1        0.1718
     34 C          19.9213   70.1857   -7.4047 C.3     1  UNL1        0.1968
     35 C          17.7651   71.2957   -8.0573 C.3     1  UNL1        0.1723
     36 C          19.9240   71.0543   -6.1460 C.3     1  UNL1        0.2706
     37 C          17.8420   72.0484   -6.7321 C.3     1  UNL1        0.1830
     38 H          19.8520   69.6636   -9.9401 H       1  UNL1        0.2105
     39 H          21.2715   69.3818   -8.5941 H       1  UNL1        0.2106
     40 H          17.1222   71.6849   -9.8829 H       1  UNL1        0.2106
     41 O          16.5389   71.8796   -4.7892 O.co2   1  UNL1       -0.5466
     42 O          15.4705   72.4921   -6.7081 O.co2   1  UNL1       -0.5466
     43 C          16.4880   72.1712   -6.1125 C.2     1  UNL1        0.0799
@<TRIPOS>UNITY_ATOM_ATTR
2 1
charge -1
26 1
charge -1
41 1
charge -1
@<TRIPOS>BOND
     1     1     4    1
     2     1    24    1
     3     1     2    1
     4     1     3    2
     5    25    28    1
     6    25    24    1
     7    25    26    1
     8    25    27    2
     9     6    11    1
    10     6    12    1
    11    29    36    1
    12    29    37    1
    13     7     9    1
    14     7    13    1
    15     8    10    1
    16     8    14    1
    17     4     5    1
    18    28    36    1
    19    30    33    1
    20    30    38    1
    21    31    34    1
    22    31    39    1
    23    32    35    1
    24    32    40    1
    25    41    43   ar
    26    15    19    2
    27    42    43   ar
    28    16    22    2
    29    17    12    1
    30    17    19   ar
    31    17    20   ar
    32    18    19   ar
    33    18    22   ar
    34    18    23    1
    35     9    10    1
    36     9    11    1
    37    10    12    1
    38    11     5    1
    39    33    34    1
    40    33    35    1
    41    34    36    1
    42    35    37    1
    43    37    43    1
    44    20    21   ar
    45    21    22   ar
@<TRIPOS>MOLECULE
*****
 43 45 0 0 0
SMALL
GASTEIGER

@<TRIPOS>ATOM
      1 P          19.7689   73.6986   -0.9576 P.3     1  UNL1        0.2189
      2 O          18.2375   73.9566   -0.5025 O.co2   1  UNL1       -0.4371
      3 O          20.7380   74.7726   -0.5586 O.2     1  UNL1       -0.5170
      4 O          19.6585   73.4064   -2.5452 O.3     1  UNL1       -0.3112
      5 C          20.6817   73.8919   -3.3948 C.3     1  UNL1        0.1811
      6 O          21.0048   71.6150   -4.0940 O.3     1  UNL1       -0.3308
      7 O          23.8929   72.3332   -4.4608 O.3     1  UNL1       -0.3794
      8 O          22.9317   72.4080   -7.0116 O.3     1  UNL1       -0.3779
      9 C          22.7280   73.1242   -4.6969 C.3     1  UNL1        0.1713
     10 C          22.0274   72.6623   -5.9571 C.3     1  UNL1        0.1895
     11 C          21.7047   72.7863   -3.6213 C.3     1  UNL1        0.1764
     12 C          21.3166   71.4070   -5.4807 C.3     1  UNL1        0.2383
     13 H          24.5612   72.5317   -5.1358 H       1  UNL1        0.2105
     14 H          23.3580   73.2378   -7.2791 H       1  UNL1        0.2106
     15 O          21.1238   69.7623   -7.7685 O.2     1  UNL1       -0.2464
     16 O          16.5961   70.5295   -8.1630 O.2     1  UNL1       -0.2670
     17 N          20.0997   71.1596   -6.2009 N.ar    1  UNL1       -0.2551
     18 N          18.8691   70.1468   -7.9634 N.ar    1  UNL1       -0.2743
     19 C          20.1112   70.3173   -7.3378 C.ar    1  UNL1        0.3323
     20 C          18.9126   71.7462   -5.7793 C.ar    1  UNL1        0.0869
     21 C          17.7365   71.5741   -6.3857 C.ar    1  UNL1        0.0795
     22 C          17.6619   70.7095   -7.5817 C.ar    1  UNL1        0.2626
     23 H          18.8524   69.5663   -8.7584 H       1  UNL1        0.1734
     24 O          20.0898   72.2393   -0.3410 O.3     1  UNL1       -0.2703
     25 P          21.3968   71.6746    0.4250 P.3     1  UNL1        0.2208
     26 O          22.6055   72.0389   -0.5882 O.co2   1  UNL1       -0.4371
     27 O          21.3150   70.2213    0.7929 O.2     1  UNL1       -0.5170
     28 O          21.6002   72.6717    1.6767 O.3     1  UNL1       -0.2858
     29 O          23.1433   71.3054    2.8435 O.3     1  UNL1       -0.3226
     30 O          23.8481   75.0064    4.5388 O.3     1  UNL1       -0.3794
     31 O          21.1169   74.1193    4.0020 O.3     1  UNL1       -0.3775
     32 O          25.7195   73.9070    2.6048 O.3     1  UNL1       -0.3792
     33 C          23.4902   74.0962    3.4988 C.3     1  UNL1        0.1718
     34 C          22.2671   73.2850    3.9273 C.3     1  UNL1        0.1968
     35 C          24.6827   73.1699    3.2499 C.3     1  UNL1        0.1723
     36 C          21.9936   72.1466    2.9434 C.3     1  UNL1        0.2706
     37 C          24.2965   71.9913    2.3610 C.3     1  UNL1        0.1830
     38 H          23.1053   75.6052    4.7144 H       1  UNL1        0.2105
     39 H          21.2836   74.8440    4.6244 H       1  UNL1        0.2106
     40 H          25.9745   74.6602    3.1602 H       1  UNL1        0.2106
     41 O          24.8024   69.7036    2.2509 O.co2   1  UNL1       -0.5466
     42 O          26.5494   71.1432    2.5240 O.co2   1  UNL1       -0.5466
     43 C          25.3527   70.9349    2.3922 C.2     1  UNL1        0.0799
@<TRIPOS>UNITY_ATOM_ATTR
2 1
charge -1
26 1
charge -1
41 1
charge -1
@<TRIPOS>BOND
     1     1     4    1
     2     1    24    1
     3     1     2    1
     4     1     3    2
     5    25    28    1
     6    25    24    1
     7    25    26    1
     8    25    27    2
     9     6    11    1
    10     6    12    1
    11    29    36    1
    12    29    37    1
    13     7     9    1
    14     7    13    1
    15     8    10    1
    16     8    14    1
    17     4     5    1
    18    28    36    1
    19    30    33    1
    20    30    38    1
    21    31    34    1
    22    31    39    1
    23    32    35    1
    24    32    40    1
    25    41    43   ar
    26    15    19    2
    27    42    43   ar
    28    16    22    2
    29    17    12    1
    30    17    19   ar
    31    17    20   ar
    32    18    19   ar
    33    18    22   ar
    34    18    23    1
    35     9    10    1
    36     9    11    1
    37    10    12    1
    38    11     5    1
    39    33    34    1
    40    33    35    1
    41    34    36    1
    42    35    37    1
    43    37    43    1
    44    20    21   ar
    45    21    22   ar
@<TRIPOS>MOLECULE
*****
 43 45 0 0 0
SMALL
GASTEIGER

@<TRIPOS>ATOM
      1 P          22.6481   70.9835    0.6952 P.3     1  UNL1        0.2189
      2 O          23.9995   70.5115    1.4502 O.co2   1  UNL1       -0.4371
      3 O          21.4268   70.1731    1.0166 O.2     1  UNL1       -0.5170
      4 O          23.0708   71.0284   -0.8659 O.3     1  UNL1       -0.3112
      5 C          22.3211   71.8456   -1.7461 C.3     1  UNL1        0.1811
      6 O          21.7635   70.3868   -3.5733 O.3     1  UNL1       -0.3308
      7 O          23.2171   72.3353   -5.3288 O.3     1  UNL1       -0.3794
      8 O          20.6029   72.9808   -5.7593 O.3     1  UNL1       -0.3779
      9 C          22.4079   72.5842   -4.1791 C.3     1  UNL1        0.1713
     10 C          20.9441   72.3990   -4.5185 C.3     1  UNL1        0.1895
     11 C          22.6488   71.4586   -3.1825 C.3     1  UNL1        0.1764
     12 C          20.8111   70.8856   -4.5259 C.3     1  UNL1        0.2383
     13 H          23.0802   73.0416   -5.9800 H       1  UNL1        0.2105
     14 H          20.7036   73.9445   -5.7030 H       1  UNL1        0.2106
     15 O          18.6565   70.5583   -6.3223 O.2     1  UNL1       -0.2464
     16 O          15.8156   69.2056   -2.9543 O.2     1  UNL1       -0.2670
     17 N          19.4975   70.4491   -4.1454 N.ar    1  UNL1       -0.2551
     18 N          17.2433   69.8859   -4.6430 N.ar    1  UNL1       -0.2743
     19 C          18.4858   70.3175   -5.1258 C.ar    1  UNL1        0.3323
     20 C          19.2226   70.1550   -2.8154 C.ar    1  UNL1        0.0869
     21 C          18.0334   69.7444   -2.3704 C.ar    1  UNL1        0.0795
     22 C          16.9217   69.5819   -3.3301 C.ar    1  UNL1        0.2626
     23 H          16.5226   69.7887   -5.3067 H       1  UNL1        0.1734
     24 O          22.5407   72.5479    1.0877 O.3     1  UNL1       -0.2703
     25 P          21.6494   73.3030    2.2053 P.3     1  UNL1        0.2208
     26 O          20.7800   72.1034    2.8576 O.co2   1  UNL1       -0.4371
     27 O          20.8293   74.4421    1.6725 O.2     1  UNL1       -0.5170
     28 O          22.7010   73.7164    3.3568 O.3     1  UNL1       -0.2858
     29 O          21.6373   75.0972    4.9602 O.3     1  UNL1       -0.3226
     30 O          25.5274   75.0377    6.3502 O.3     1  UNL1       -0.3794
     31 O          24.9796   75.3055    3.4932 O.3     1  UNL1       -0.3775
     32 O          23.4786   73.4608    7.6795 O.3     1  UNL1       -0.3792
     33 C          24.3664   74.5160    5.7038 C.3     1  UNL1        0.1718
     34 C          23.9972   75.4070    4.5175 C.3     1  UNL1        0.1968
     35 C          23.2273   74.4909    6.7254 C.3     1  UNL1        0.1723
     36 C          22.6354   75.0155    3.9421 C.3     1  UNL1        0.2706
     37 C          21.8838   74.2178    6.0553 C.3     1  UNL1        0.1830
     38 H          26.2646   75.0631    5.7201 H       1  UNL1        0.2105
     39 H          25.8463   75.5522    3.8514 H       1  UNL1        0.2106
     40 H          24.3310   73.6227    8.1132 H       1  UNL1        0.2106
     41 O          21.2190   75.0555    8.1428 O.co2   1  UNL1       -0.5466
     42 O          19.5747   74.3132    6.7483 O.co2   1  UNL1       -0.5466
     43 C          20.7554   74.5181    6.9873 C.2     1  UNL1        0.0799
@<TRIPOS>UNITY_ATOM_ATTR
2 1
charge -1
26 1
charge -1
41 1
charge -1
@<TRIPOS>BOND
     1     1     4    1
     2     1    24    1
     3     1     2    1
     4     1     3    2
     5    25    28    1
     6    25    24    1
     7    25    26    1
     8    25    27    2
     9     6    11    1
    10     6    12    1
    11    29    36    1
    12    29    37    1
    13     7     9    1
    14     7    13    1
    15     8    10    1
    16     8    14    1
    17     4     5    1
    18    28    36    1
    19    30    33    1
    20    30    38    1
    21    31    34    1
    22    31    39    1
    23    32    35    1
    24    32    40    1
    25    41    43   ar
    26    15    19    2
    27    42    43   ar
    28    16    22    2
    29    17    12    1
    30    17    19   ar
    31    17    20   ar
    32    18    19   ar
    33    18    22   ar
    34    18    23    1
    35     9    10    1
    36     9    11    1
    37    10    12    1
    38    11     5    1
    39    33    34    1
    40    33    35    1
    41    34    36    1
    42    35    37    1
    43    37    43    1
    44    20    21   ar
    45    21    22   ar
@<TRIPOS>MOLECULE
*****
 43 45 0 0 0
SMALL
GASTEIGER

@<TRIPOS>ATOM
      1 P          23.3521   73.9483   -4.1146 P.3     1  UNL1        0.2189
      2 O          23.8193   74.9403   -5.3047 O.co2   1  UNL1       -0.4371
      3 O          24.3736   72.9299   -3.7009 O.2     1  UNL1       -0.5170
      4 O          21.9395   73.3553   -4.6351 O.3     1  UNL1       -0.3112
      5 C          21.7636   71.9506   -4.6591 C.3     1  UNL1        0.1811
      6 O          20.4481   70.4201   -5.9647 O.3     1  UNL1       -0.3308
      7 O          20.8097   72.3406   -8.2390 O.3     1  UNL1       -0.3794
      8 O          18.2895   72.9142   -7.3698 O.3     1  UNL1       -0.3779
      9 C          20.6444   72.6098   -6.8466 C.3     1  UNL1        0.1713
     10 C          19.2052   72.3814   -6.4359 C.3     1  UNL1        0.1895
     11 C          21.3741   71.5234   -6.0683 C.3     1  UNL1        0.1764
     12 C          19.1383   70.8661   -6.3503 C.3     1  UNL1        0.2383
     13 H          20.3520   73.0217   -8.7569 H       1  UNL1        0.2105
     14 H          18.3709   73.8811   -7.3869 H       1  UNL1        0.2106
     15 O          16.4332   70.2841   -6.9162 O.2     1  UNL1       -0.2464
     16 O          15.5736   69.1380   -2.5354 O.2     1  UNL1       -0.2670
     17 N          18.1855   70.4138   -5.3764 N.ar    1  UNL1       -0.2551
     18 N          16.0074   69.7148   -4.7336 N.ar    1  UNL1       -0.2743
     19 C          16.8507   70.1498   -5.7644 C.ar    1  UNL1        0.3323
     20 C          18.5763   70.2346   -4.0550 C.ar    1  UNL1        0.0869
     21 C          17.7611   69.8193   -3.0836 C.ar    1  UNL1        0.0795
     22 C          16.3498   69.5223   -3.4049 C.ar    1  UNL1        0.2626
     23 H          15.0727   69.5266   -4.9790 H       1  UNL1        0.1734
     24 O          22.9078   74.9703   -2.9437 O.3     1  UNL1       -0.2703
     25 P          23.4337   75.1367   -1.4240 P.3     1  UNL1        0.2208
     26 O          22.5581   76.3775   -0.8634 O.co2   1  UNL1       -0.4371
     27 O          24.9185   75.3231   -1.3032 O.2     1  UNL1       -0.5170
     28 O          22.8554   73.8465   -0.6472 O.3     1  UNL1       -0.2858
     29 O          23.9100   73.4141    1.4288 O.3     1  UNL1       -0.3226
     30 O          21.6101   70.0184    0.9308 O.3     1  UNL1       -0.3794
     31 O          23.0762   71.1579   -1.3245 O.3     1  UNL1       -0.3775
     32 O          20.7831   72.0786    2.8076 O.3     1  UNL1       -0.3792
     33 C          21.9352   71.4025    0.8025 C.3     1  UNL1        0.1718
     34 C          23.2476   71.5507    0.0323 C.3     1  UNL1        0.1968
     35 C          22.0748   71.9879    2.2096 C.3     1  UNL1        0.1723
     36 C          23.7457   72.9961    0.0732 C.3     1  UNL1        0.2706
     37 C          22.6948   73.3818    2.1740 C.3     1  UNL1        0.1830
     38 H          21.5164   69.6250    0.0489 H       1  UNL1        0.2105
     39 H          22.7600   70.2418   -1.3580 H       1  UNL1        0.2106
     40 H          20.3774   71.1980    2.8362 H       1  UNL1        0.2106
     41 O          23.7639   75.0013    3.4914 O.co2   1  UNL1       -0.5466
     42 O          22.9364   73.1679    4.5651 O.co2   1  UNL1       -0.5466
     43 C          23.1276   73.8048    3.5400 C.2     1  UNL1        0.0799
@<TRIPOS>UNITY_ATOM_ATTR
2 1
charge -1
26 1
charge -1
41 1
charge -1
@<TRIPOS>BOND
     1     1     4    1
     2     1    24    1
     3     1     2    1
     4     1     3    2
     5    25    28    1
     6    25    24    1
     7    25    26    1
     8    25    27    2
     9     6    11    1
    10     6    12    1
    11    29    36    1
    12    29    37    1
    13     7     9    1
    14     7    13    1
    15     8    10    1
    16     8    14    1
    17     4     5    1
    18    28    36    1
    19    30    33    1
    20    30    38    1
    21    31    34    1
    22    31    39    1
    23    32    35    1
    24    32    40    1
    25    41    43   ar
    26    15    19    2
    27    42    43   ar
    28    16    22    2
    29    17    12    1
    30    17    19   ar
    31    17    20   ar
    32    18    19   ar
    33    18    22   ar
    34    18    23    1
    35     9    10    1
    36     9    11    1
    37    10    12    1
    38    11     5    1
    39    33    34    1
    40    33    35    1
    41    34    36    1
    42    35    37    1
    43    37    43    1
    44    20    21   ar
    45    21    22   ar
