@<TRIPOS>MOLECULE
*****
 43 45 0 0 0
SMALL
GASTEIGER

@<TRIPOS>ATOM
      1 P          22.4910   71.5172   -2.5370 P.3     1  UNL1        0.2189
      2 O          21.3494   72.6619   -2.6091 O.co2   1  UNL1       -0.4371
      3 O          23.5982   71.6626   -3.5395 O.2     1  UNL1       -0.5170
      4 O          21.6574   70.1322   -2.6068 O.3     1  UNL1       -0.3112
      5 C          20.7862   69.9219   -3.7028 C.3     1  UNL1        0.1811
      6 O          19.1689   71.4411   -4.6271 O.3     1  UNL1       -0.3308
      7 O          17.3035   70.4595   -2.4944 O.3     1  UNL1       -0.3794
      8 O          16.4664   69.0861   -4.6964 O.3     1  UNL1       -0.3779
      9 C          18.2929   69.7401   -3.2306 C.3     1  UNL1        0.1713
     10 C          17.8172   69.4953   -4.6470 C.3     1  UNL1        0.1895
     11 C          19.4815   70.6662   -3.4493 C.3     1  UNL1        0.1764
     12 C          18.0415   70.8514   -5.2938 C.3     1  UNL1        0.2383
     13 H          16.5341   69.8881   -2.3424 H       1  UNL1        0.2105
     14 H          16.3760   68.2177   -4.2724 H       1  UNL1        0.2106
     15 O          16.0834   70.5494   -7.3066 O.2     1  UNL1       -0.2464
     16 O          19.2628   70.4673  -10.6425 O.2     1  UNL1       -0.2670
     17 N          18.3298   70.7487   -6.6964 N.ar    1  UNL1       -0.2551
     18 N          17.6688   70.5078   -8.9660 N.ar    1  UNL1       -0.2743
     19 C          17.2729   70.5991   -7.6252 C.ar    1  UNL1        0.3323
     20 C          19.6460   70.7979   -7.1393 C.ar    1  UNL1        0.0869
     21 C          20.0078   70.7097   -8.4208 C.ar    1  UNL1        0.0795
     22 C          18.9645   70.5510   -9.4550 C.ar    1  UNL1        0.2626
     23 H          16.9507   70.4011   -9.6310 H       1  UNL1        0.1734
     24 O          22.9679   71.5770   -0.9937 O.3     1  UNL1       -0.2703
     25 P          22.5088   70.7131    0.2933 P.3     1  UNL1        0.2208
     26 O          23.6822   69.6069    0.4340 O.co2   1  UNL1       -0.4371
     27 O          21.1261   70.1378    0.1874 O.2     1  UNL1       -0.5170
     28 O          22.7282   71.7015    1.5492 O.3     1  UNL1       -0.2858
     29 O          21.9294   72.5399    3.6152 O.3     1  UNL1       -0.3226
     30 O          21.2934   75.7556    1.1005 O.3     1  UNL1       -0.3794
     31 O          20.6884   73.0389    0.2126 O.3     1  UNL1       -0.3775
     32 O          23.5125   75.7880    2.9781 O.3     1  UNL1       -0.3792
     33 C          21.9605   74.5879    1.5796 C.3     1  UNL1        0.1718
     34 C          20.9969   73.4011    1.5536 C.3     1  UNL1        0.1968
     35 C          22.4269   74.8634    3.0108 C.3     1  UNL1        0.1723
     36 C          21.5991   72.1917    2.2701 C.3     1  UNL1        0.2706
     37 C          22.8956   73.5851    3.6999 C.3     1  UNL1        0.1830
     38 H          20.9879   75.6039    0.1923 H       1  UNL1        0.2105
     39 H          20.3062   73.8018   -0.2481 H       1  UNL1        0.2106
     40 H          23.2275   76.6061    2.5418 H       1  UNL1        0.2106
     41 O          22.4097   72.8063    5.8583 O.co2   1  UNL1       -0.5466
     42 O          23.6262   74.7278    5.6953 O.co2   1  UNL1       -0.5466
     43 C          23.0333   73.7961    5.1726 C.2     1  UNL1        0.0799
@<TRIPOS>UNITY_ATOM_ATTR
2 1
charge -1
26 1
charge -1
41 1
charge -1
@<TRIPOS>BOND
     1     1     4    1
     2     1    24    1
     3     1     2    1
     4     1     3    2
     5    25    28    1
     6    25    24    1
     7    25    26    1
     8    25    27    2
     9     6    11    1
    10     6    12    1
    11    29    36    1
    12    29    37    1
    13     7     9    1
    14     7    13    1
    15     8    10    1
    16     8    14    1
    17     4     5    1
    18    28    36    1
    19    30    33    1
    20    30    38    1
    21    31    34    1
    22    31    39    1
    23    32    35    1
    24    32    40    1
    25    41    43   ar
    26    15    19    2
    27    42    43   ar
    28    16    22    2
    29    17    12    1
    30    17    19   ar
    31    17    20   ar
    32    18    19   ar
    33    18    22   ar
    34    18    23    1
    35     9    10    1
    36     9    11    1
    37    10    12    1
    38    11     5    1
    39    33    34    1
    40    33    35    1
    41    34    36    1
    42    35    37    1
    43    37    43    1
    44    20    21   ar
    45    21    22   ar
@<TRIPOS>MOLECULE
*****
 43 45 0 0 0
SMALL
GASTEIGER

@<TRIPOS>ATOM
      1 P          23.0343   71.9589   -3.4219 P.3     1  UNL1        0.2189
      2 O          23.7796   72.9583   -4.4537 O.co2   1  UNL1       -0.4371
      3 O          23.6749   70.6102   -3.2718 O.2     1  UNL1       -0.5170
      4 O          21.4973   71.9544   -3.9272 O.3     1  UNL1       -0.3112
      5 C          20.6623   70.8776   -3.5427 C.3     1  UNL1        0.1811
      6 O          18.8331   71.9701   -4.6554 O.3     1  UNL1       -0.3308
      7 O          17.0927   70.8675   -2.4768 O.3     1  UNL1       -0.3794
      8 O          16.6157   69.1550   -4.5446 O.3     1  UNL1       -0.3779
      9 C          18.2276   70.2784   -3.1121 C.3     1  UNL1        0.1713
     10 C          17.8648   69.8129   -4.5063 C.3     1  UNL1        0.1895
     11 C          19.2335   71.3852   -3.3973 C.3     1  UNL1        0.1764
     12 C          17.8624   71.1180   -5.2839 C.3     1  UNL1        0.2383
     13 H          16.4359   70.1795   -2.2846 H       1  UNL1        0.2105
     14 H          16.6689   68.3303   -4.0357 H       1  UNL1        0.2106
     15 O          16.0368   70.4662   -7.3378 O.2     1  UNL1       -0.2464
     16 O          19.3585   70.4433  -10.5331 O.2     1  UNL1       -0.2670
     17 N          18.2232   70.9359   -6.6614 N.ar    1  UNL1       -0.2551
     18 N          17.6931   70.4544   -8.9271 N.ar    1  UNL1       -0.2743
     19 C          17.2293   70.6097   -7.6142 C.ar    1  UNL1        0.3323
     20 C          19.5473   71.0819   -7.0567 C.ar    1  UNL1        0.0869
     21 C          19.9742   70.9309   -8.3120 C.ar    1  UNL1        0.0795
     22 C          18.9995   70.5888   -9.3685 C.ar    1  UNL1        0.2626
     23 H          17.0198   70.2251   -9.6078 H       1  UNL1        0.1734
     24 O          22.9667   72.8275   -2.0604 O.3     1  UNL1       -0.2703
     25 P          22.4877   74.3485   -1.7943 P.3     1  UNL1        0.2208
     26 O          21.2191   74.5155   -2.7859 O.co2   1  UNL1       -0.4371
     27 O          23.5645   75.3763   -1.9893 O.2     1  UNL1       -0.5170
     28 O          21.8468   74.3228   -0.3141 O.3     1  UNL1       -0.2858
     29 O          21.2352   72.0416   -0.1379 O.3     1  UNL1       -0.3226
     30 O          20.7526   73.3443    3.7529 O.3     1  UNL1       -0.3794
     31 O          19.8648   75.0003    1.5159 O.3     1  UNL1       -0.3775
     32 O          23.0621   71.7340    3.0291 O.3     1  UNL1       -0.3792
     33 C          21.3387   73.3155    2.4515 C.3     1  UNL1        0.1718
     34 C          20.2745   73.6422    1.4036 C.3     1  UNL1        0.1968
     35 C          21.9026   71.9122    2.2178 C.3     1  UNL1        0.1723
     36 C          20.8049   73.3973   -0.0097 C.3     1  UNL1        0.2706
     37 C          22.2927   71.7047    0.7572 C.3     1  UNL1        0.1830
     38 H          20.3873   74.2268    3.9237 H       1  UNL1        0.2105
     39 H          19.5273   75.1628    2.4103 H       1  UNL1        0.2106
     40 H          22.8275   71.8635    3.9613 H       1  UNL1        0.2106
     41 O          21.3514   69.5802    0.4379 O.co2   1  UNL1       -0.5466
     42 O          23.6206   69.7455    0.2883 O.co2   1  UNL1       -0.5466
     43 C          22.5261   70.2569    0.4710 C.2     1  UNL1        0.0799
@<TRIPOS>UNITY_ATOM_ATTR
2 1
charge -1
26 1
charge -1
41 1
charge -1
@<TRIPOS>BOND
     1     1     4    1
     2     1    24    1
     3     1     2    1
     4     1     3    2
     5    25    28    1
     6    25    24    1
     7    25    26    1
     8    25    27    2
     9     6    11    1
    10     6    12    1
    11    29    36    1
    12    29    37    1
    13     7     9    1
    14     7    13    1
    15     8    10    1
    16     8    14    1
    17     4     5    1
    18    28    36    1
    19    30    33    1
    20    30    38    1
    21    31    34    1
    22    31    39    1
    23    32    35    1
    24    32    40    1
    25    41    43   ar
    26    15    19    2
    27    42    43   ar
    28    16    22    2
    29    17    12    1
    30    17    19   ar
    31    17    20   ar
    32    18    19   ar
    33    18    22   ar
    34    18    23    1
    35     9    10    1
    36     9    11    1
    37    10    12    1
    38    11     5    1
    39    33    34    1
    40    33    35    1
    41    34    36    1
    42    35    37    1
    43    37    43    1
    44    20    21   ar
    45    21    22   ar
@<TRIPOS>MOLECULE
*****
 43 45 0 0 0
SMALL
GASTEIGER

@<TRIPOS>ATOM
      1 P          21.7433   73.9499   -5.6132 P.3     1  UNL1        0.2189
      2 O          21.3428   74.9890   -4.4390 O.co2   1  UNL1       -0.4371
      3 O          22.8187   74.4291   -6.5437 O.2     1  UNL1       -0.5170
      4 O          20.3279   73.5817   -6.3055 O.3     1  UNL1       -0.3112
      5 C          19.9174   74.3223   -7.4402 C.3     1  UNL1        0.1811
      6 O          19.6568   72.0095   -8.0411 O.3     1  UNL1       -0.3308
      7 O          17.9976   72.9863  -10.3399 O.3     1  UNL1       -0.3794
      8 O          16.1112   72.1700   -8.5479 O.3     1  UNL1       -0.3779
      9 C          18.0928   73.5006   -9.0113 C.3     1  UNL1        0.1713
     10 C          17.3608   72.5940   -8.0447 C.3     1  UNL1        0.1895
     11 C          19.5375   73.3544   -8.5535 C.3     1  UNL1        0.1764
     12 C          18.3445   71.4481   -7.8805 C.3     1  UNL1        0.2383
     13 H          17.0832   73.0690  -10.6542 H       1  UNL1        0.2105
     14 H          15.5207   72.9354   -8.6340 H       1  UNL1        0.2106
     15 O          16.1164   69.9721   -6.9674 O.2     1  UNL1       -0.2464
     16 O          18.1141   69.1241   -2.9012 O.2     1  UNL1       -0.2670
     17 N          18.2558   70.8307   -6.5875 N.ar    1  UNL1       -0.2551
     18 N          17.1131   69.5520   -4.9427 N.ar    1  UNL1       -0.2743
     19 C          17.0918   70.1116   -6.2270 C.ar    1  UNL1        0.3323
     20 C          19.3138   70.9390   -5.6932 C.ar    1  UNL1        0.0869
     21 C          19.3196   70.4001   -4.4724 C.ar    1  UNL1        0.0795
     22 C          18.1413   69.6332   -4.0176 C.ar    1  UNL1        0.2626
     23 H          16.3128   69.0484   -4.6684 H       1  UNL1        0.1734
     24 O          22.1097   72.6036   -4.7971 O.3     1  UNL1       -0.2703
     25 P          23.0865   72.3622   -3.5317 P.3     1  UNL1        0.2208
     26 O          24.3027   73.3960   -3.8008 O.co2   1  UNL1       -0.4371
     27 O          23.5166   70.9354   -3.3492 O.2     1  UNL1       -0.5170
     28 O          22.2910   72.9876   -2.2754 O.3     1  UNL1       -0.2858
     29 O          21.5041   71.1918   -0.9467 O.3     1  UNL1       -0.3226
     30 O          20.1085   74.4651    1.1523 O.3     1  UNL1       -0.3794
     31 O          19.9490   74.3981   -1.7639 O.3     1  UNL1       -0.3775
     32 O          22.4145   72.9845    2.1225 O.3     1  UNL1       -0.3792
     33 C          21.0114   73.7415    0.3161 C.3     1  UNL1        0.1718
     34 C          20.2824   73.2819   -0.9468 C.3     1  UNL1        0.1968
     35 C          21.5221   72.5338    1.1051 C.3     1  UNL1        0.1723
     36 C          21.1465   72.3132   -1.7554 C.3     1  UNL1        0.2706
     37 C          22.2659   71.5532    0.2032 C.3     1  UNL1        0.1830
     38 H          19.7709   75.2374    0.6719 H       1  UNL1        0.2105
     39 H          19.4009   75.0170   -1.2571 H       1  UNL1        0.2106
     40 H          21.9534   73.6096    2.7034 H       1  UNL1        0.2106
     41 O          21.6070   69.3126    0.4200 O.co2   1  UNL1       -0.5466
     42 O          23.2972   70.0349    1.7693 O.co2   1  UNL1       -0.5466
     43 C          22.4691   70.2450    0.8957 C.2     1  UNL1        0.0799
@<TRIPOS>UNITY_ATOM_ATTR
2 1
charge -1
26 1
charge -1
41 1
charge -1
@<TRIPOS>BOND
     1     1     4    1
     2     1    24    1
     3     1     2    1
     4     1     3    2
     5    25    28    1
     6    25    24    1
     7    25    26    1
     8    25    27    2
     9     6    11    1
    10     6    12    1
    11    29    36    1
    12    29    37    1
    13     7     9    1
    14     7    13    1
    15     8    10    1
    16     8    14    1
    17     4     5    1
    18    28    36    1
    19    30    33    1
    20    30    38    1
    21    31    34    1
    22    31    39    1
    23    32    35    1
    24    32    40    1
    25    41    43   ar
    26    15    19    2
    27    42    43   ar
    28    16    22    2
    29    17    12    1
    30    17    19   ar
    31    17    20   ar
    32    18    19   ar
    33    18    22   ar
    34    18    23    1
    35     9    10    1
    36     9    11    1
    37    10    12    1
    38    11     5    1
    39    33    34    1
    40    33    35    1
    41    34    36    1
    42    35    37    1
    43    37    43    1
    44    20    21   ar
    45    21    22   ar
@<TRIPOS>MOLECULE
*****
 43 45 0 0 0
SMALL
GASTEIGER

@<TRIPOS>ATOM
      1 P          22.7771   71.6953   -2.2367 P.3     1  UNL1        0.2189
      2 O          23.3315   73.2066   -2.4020 O.co2   1  UNL1       -0.4371
      3 O          23.3940   70.6892   -3.1636 O.2     1  UNL1       -0.5170
      4 O          21.1707   71.8569   -2.3438 O.3     1  UNL1       -0.3112
      5 C          20.5330   71.4866   -3.5524 C.3     1  UNL1        0.1811
      6 O          18.5990   72.2643   -4.7493 O.3     1  UNL1       -0.3308
      7 O          16.9764   71.0934   -2.5160 O.3     1  UNL1       -0.3794
      8 O          16.7521   69.2040   -4.4695 O.3     1  UNL1       -0.3779
      9 C          18.1865   70.6129   -3.1020 C.3     1  UNL1        0.1713
     10 C          17.9077   70.0160   -4.4652 C.3     1  UNL1        0.1895
     11 C          19.0495   71.8174   -3.4521 C.3     1  UNL1        0.1764
     12 C          17.7535   71.2572   -5.3274 C.3     1  UNL1        0.2383
     13 H          16.4084   70.3416   -2.2838 H       1  UNL1        0.2105
     14 H          16.9006   68.4274   -3.9067 H       1  UNL1        0.2106
     15 O          16.0227   70.3818   -7.3803 O.2     1  UNL1       -0.2464
     16 O          19.4088   70.4322  -10.5069 O.2     1  UNL1       -0.2670
     17 N          18.1565   71.0334   -6.6870 N.ar    1  UNL1       -0.2551
     18 N          17.7110   70.4067   -8.9354 N.ar    1  UNL1       -0.2743
     19 C          17.2085   70.5934   -7.6409 C.ar    1  UNL1        0.3323
     20 C          19.4761   71.2509   -7.0640 C.ar    1  UNL1        0.0869
     21 C          19.9402   71.0687   -8.3018 C.ar    1  UNL1        0.0795
     22 C          19.0148   70.6092   -9.3582 C.ar    1  UNL1        0.2626
     23 H          17.0702   70.0987   -9.6164 H       1  UNL1        0.1734
     24 O          23.0080   71.3937   -0.6656 O.3     1  UNL1       -0.2703
     25 P          22.1199   70.5594    0.3969 P.3     1  UNL1        0.2208
     26 O          23.2301   69.9258    1.3901 O.co2   1  UNL1       -0.4371
     27 O          21.2006   69.5499   -0.2274 O.2     1  UNL1       -0.5170
     28 O          21.3765   71.6847    1.2820 O.3     1  UNL1       -0.2858
     29 O          21.8660   74.0019    1.2751 O.3     1  UNL1       -0.3226
     30 O          20.2568   73.4938    5.0461 O.3     1  UNL1       -0.3794
     31 O          22.1250   71.5299    3.9563 O.3     1  UNL1       -0.3775
     32 O          18.6830   74.7406    2.9439 O.3     1  UNL1       -0.3792
     33 C          20.4207   73.2297    3.6528 C.3     1  UNL1        0.1718
     34 C          21.8633   72.8038    3.3788 C.3     1  UNL1        0.1968
     35 C          20.0897   74.5123    2.8863 C.3     1  UNL1        0.1723
     36 C          22.1374   72.7350    1.8759 C.3     1  UNL1        0.2706
     37 C          20.5077   74.4099    1.4223 C.3     1  UNL1        0.1830
     38 H          20.4618   72.6927    5.5535 H       1  UNL1        0.2105
     39 H          21.9528   71.5662    4.9100 H       1  UNL1        0.2106
     40 H          18.4039   74.8076    3.8705 H       1  UNL1        0.2106
     41 O          20.4338   76.7375    1.7018 O.co2   1  UNL1       -0.5466
     42 O          20.5200   75.9488   -0.4359 O.co2   1  UNL1       -0.5466
     43 C          20.4885   75.7538    0.7699 C.2     1  UNL1        0.0799
@<TRIPOS>UNITY_ATOM_ATTR
2 1
charge -1
26 1
charge -1
41 1
charge -1
@<TRIPOS>BOND
     1     1     4    1
     2     1    24    1
     3     1     2    1
     4     1     3    2
     5    25    28    1
     6    25    24    1
     7    25    26    1
     8    25    27    2
     9     6    11    1
    10     6    12    1
    11    29    36    1
    12    29    37    1
    13     7     9    1
    14     7    13    1
    15     8    10    1
    16     8    14    1
    17     4     5    1
    18    28    36    1
    19    30    33    1
    20    30    38    1
    21    31    34    1
    22    31    39    1
    23    32    35    1
    24    32    40    1
    25    41    43   ar
    26    15    19    2
    27    42    43   ar
    28    16    22    2
    29    17    12    1
    30    17    19   ar
    31    17    20   ar
    32    18    19   ar
    33    18    22   ar
    34    18    23    1
    35     9    10    1
    36     9    11    1
    37    10    12    1
    38    11     5    1
    39    33    34    1
    40    33    35    1
    41    34    36    1
    42    35    37    1
    43    37    43    1
    44    20    21   ar
    45    21    22   ar
@<TRIPOS>MOLECULE
*****
 43 45 0 0 0
SMALL
GASTEIGER

@<TRIPOS>ATOM
      1 P          23.0136   72.0335   -3.2788 P.3     1  UNL1        0.2189
      2 O          23.7122   72.9399   -4.4231 O.co2   1  UNL1       -0.4371
      3 O          23.5152   70.6217   -3.1948 O.2     1  UNL1       -0.5170
      4 O          21.4297   72.2006   -3.5640 O.3     1  UNL1       -0.3112
      5 C          20.6092   71.0476   -3.5187 C.3     1  UNL1        0.1811
      6 O          18.7333   72.0316   -4.6546 O.3     1  UNL1       -0.3308
      7 O          17.0368   70.8547   -2.4802 O.3     1  UNL1       -0.3794
      8 O          16.6689   69.1027   -4.5371 O.3     1  UNL1       -0.3779
      9 C          18.2066   70.3222   -3.1018 C.3     1  UNL1        0.1713
     10 C          17.8806   69.8269   -4.4948 C.3     1  UNL1        0.1895
     11 C          19.1541   71.4791   -3.3886 C.3     1  UNL1        0.1764
     12 C          17.8147   71.1237   -5.2833 C.3     1  UNL1        0.2383
     13 H          16.4162   70.1341   -2.2873 H       1  UNL1        0.2105
     14 H          16.7621   68.2861   -4.0210 H       1  UNL1        0.2106
     15 O          16.0339   70.4046   -7.3541 O.2     1  UNL1       -0.2464
     16 O          19.3877   70.4860  -10.5146 O.2     1  UNL1       -0.2670
     17 N          18.1958   70.9502   -6.6564 N.ar    1  UNL1       -0.2551
     18 N          17.7062   70.4448   -8.9260 N.ar    1  UNL1       -0.2743
     19 C          17.2236   70.5878   -7.6185 C.ar    1  UNL1        0.3323
     20 C          19.5183   71.1400   -7.0384 C.ar    1  UNL1        0.0869
     21 C          19.9632   71.0002   -8.2888 C.ar    1  UNL1        0.0795
     22 C          19.0118   70.6223   -9.3543 C.ar    1  UNL1        0.2626
     23 H          17.0482   70.1909   -9.6130 H       1  UNL1        0.1734
     24 O          23.2355   72.9079   -1.9375 O.3     1  UNL1       -0.2703
     25 P          23.7232   74.4359   -1.7352 P.3     1  UNL1        0.2208
     26 O          22.4368   75.2998   -2.2034 O.co2   1  UNL1       -0.4371
     27 O          24.9939   74.7775   -2.4580 O.2     1  UNL1       -0.5170
     28 O          23.7881   74.6364   -0.1358 O.3     1  UNL1       -0.2858
     29 O          21.9096   74.2373    1.2503 O.3     1  UNL1       -0.3226
     30 O          24.2328   76.6590    3.6598 O.3     1  UNL1       -0.3794
     31 O          23.9394   77.2465    0.8132 O.3     1  UNL1       -0.3775
     32 O          24.0835   73.8016    4.1737 O.3     1  UNL1       -0.3792
     33 C          23.9819   75.6725    2.6589 C.3     1  UNL1        0.1718
     34 C          23.1628   76.2903    1.5254 C.3     1  UNL1        0.1968
     35 C          23.2078   74.5242    3.3103 C.3     1  UNL1        0.1723
     36 C          22.6798   75.2154    0.5506 C.3     1  UNL1        0.2706
     37 C          22.6519   73.5628    2.2637 C.3     1  UNL1        0.1830
     38 H          24.7239   77.3988    3.2689 H       1  UNL1        0.2105
     39 H          24.2494   77.9314    1.4257 H       1  UNL1        0.2106
     40 H          24.4443   74.4022    4.8445 H       1  UNL1        0.2106
     41 O          21.2677   73.0891    4.0971 O.co2   1  UNL1       -0.5466
     42 O          21.1961   71.6402    2.3379 O.co2   1  UNL1       -0.5466
     43 C          21.6380   72.6478    2.8694 C.2     1  UNL1        0.0799
@<TRIPOS>UNITY_ATOM_ATTR
2 1
charge -1
26 1
charge -1
41 1
charge -1
@<TRIPOS>BOND
     1     1     4    1
     2     1    24    1
     3     1     2    1
     4     1     3    2
     5    25    28    1
     6    25    24    1
     7    25    26    1
     8    25    27    2
     9     6    11    1
    10     6    12    1
    11    29    36    1
    12    29    37    1
    13     7     9    1
    14     7    13    1
    15     8    10    1
    16     8    14    1
    17     4     5    1
    18    28    36    1
    19    30    33    1
    20    30    38    1
    21    31    34    1
    22    31    39    1
    23    32    35    1
    24    32    40    1
    25    41    43   ar
    26    15    19    2
    27    42    43   ar
    28    16    22    2
    29    17    12    1
    30    17    19   ar
    31    17    20   ar
    32    18    19   ar
    33    18    22   ar
    34    18    23    1
    35     9    10    1
    36     9    11    1
    37    10    12    1
    38    11     5    1
    39    33    34    1
    40    33    35    1
    41    34    36    1
    42    35    37    1
    43    37    43    1
    44    20    21   ar
    45    21    22   ar
@<TRIPOS>MOLECULE
*****
 43 45 0 0 0
SMALL
GASTEIGER

@<TRIPOS>ATOM
      1 P          21.8859   71.0119   -1.2876 P.3     1  UNL1        0.2189
      2 O          23.1415   70.4867   -2.1631 O.co2   1  UNL1       -0.4371
      3 O          21.0179   69.9311   -0.7131 O.2     1  UNL1       -0.5170
      4 O          21.1426   72.0640   -2.2666 O.3     1  UNL1       -0.3112
      5 C          20.4934   71.5688   -3.4232 C.3     1  UNL1        0.1811
      6 O          18.5452   72.3276   -4.6091 O.3     1  UNL1       -0.3308
      7 O          16.9442   71.0747   -2.4049 O.3     1  UNL1       -0.3794
      8 O          16.7668   69.2217   -4.3976 O.3     1  UNL1       -0.3779
      9 C          18.1661   70.6337   -2.9974 C.3     1  UNL1        0.1713
     10 C          17.9039   70.0590   -4.3734 C.3     1  UNL1        0.1895
     11 C          19.0026   71.8642   -3.3202 C.3     1  UNL1        0.1764
     12 C          17.7238   71.3140   -5.2103 C.3     1  UNL1        0.2383
     13 H          16.3927   70.3057   -2.1898 H       1  UNL1        0.2105
     14 H          16.9314   68.4370   -3.8506 H       1  UNL1        0.2106
     15 O          16.0568   70.3058   -7.2550 O.2     1  UNL1       -0.2464
     16 O          19.4069   70.6408  -10.4027 O.2     1  UNL1       -0.2670
     17 N          18.1348   71.1275   -6.5730 N.ar    1  UNL1       -0.2551
     18 N          17.7272   70.4727   -8.8206 N.ar    1  UNL1       -0.2743
     19 C          17.2197   70.6143   -7.5223 C.ar    1  UNL1        0.3323
     20 C          19.4298   71.4530   -6.9577 C.ar    1  UNL1        0.0869
     21 C          19.8991   71.3126   -8.1990 C.ar    1  UNL1        0.0795
     22 C          19.0074   70.7819   -9.2509 C.ar    1  UNL1        0.2626
     23 H          17.1092   70.1152   -9.4985 H       1  UNL1        0.1734
     24 O          22.5849   71.9695   -0.1887 O.3     1  UNL1       -0.2703
     25 P          22.0453   73.2976    0.5586 P.3     1  UNL1        0.2208
     26 O          22.9307   73.3455    1.9129 O.co2   1  UNL1       -0.4371
     27 O          20.5618   73.3150    0.7887 O.2     1  UNL1       -0.5170
     28 O          22.5988   74.5226   -0.3333 O.3     1  UNL1       -0.2858
     29 O          23.8878   73.9753   -2.2434 O.3     1  UNL1       -0.3226
     30 O          24.6402   78.0186   -1.8517 O.3     1  UNL1       -0.3794
     31 O          24.5782   76.2891    0.5019 O.3     1  UNL1       -0.3775
     32 O          22.8302   77.0646   -3.9168 O.3     1  UNL1       -0.3792
     33 C          23.8684   76.8215   -1.7562 C.3     1  UNL1        0.1718
     34 C          24.5817   75.8242   -0.8429 C.3     1  UNL1        0.1968
     35 C          23.7194   76.2413   -3.1644 C.3     1  UNL1        0.1723
     36 C          23.9071   74.4528   -0.8976 C.3     1  UNL1        0.2706
     37 C          23.1566   74.8234   -3.1261 C.3     1  UNL1        0.1830
     38 H          24.7481   78.4053   -0.9685 H       1  UNL1        0.2105
     39 H          25.0045   77.1591    0.5439 H       1  UNL1        0.2106
     40 H          23.1767   77.9699   -3.9487 H       1  UNL1        0.2106
     41 O          23.8157   72.8984   -4.2929 O.co2   1  UNL1       -0.5466
     42 O          23.0486   74.6531   -5.5304 O.co2   1  UNL1       -0.5466
     43 C          23.3214   74.1513   -4.4502 C.2     1  UNL1        0.0799
@<TRIPOS>UNITY_ATOM_ATTR
2 1
charge -1
26 1
charge -1
41 1
charge -1
@<TRIPOS>BOND
     1     1     4    1
     2     1    24    1
     3     1     2    1
     4     1     3    2
     5    25    28    1
     6    25    24    1
     7    25    26    1
     8    25    27    2
     9     6    11    1
    10     6    12    1
    11    29    36    1
    12    29    37    1
    13     7     9    1
    14     7    13    1
    15     8    10    1
    16     8    14    1
    17     4     5    1
    18    28    36    1
    19    30    33    1
    20    30    38    1
    21    31    34    1
    22    31    39    1
    23    32    35    1
    24    32    40    1
    25    41    43   ar
    26    15    19    2
    27    42    43   ar
    28    16    22    2
    29    17    12    1
    30    17    19   ar
    31    17    20   ar
    32    18    19   ar
    33    18    22   ar
    34    18    23    1
    35     9    10    1
    36     9    11    1
    37    10    12    1
    38    11     5    1
    39    33    34    1
    40    33    35    1
    41    34    36    1
    42    35    37    1
    43    37    43    1
    44    20    21   ar
    45    21    22   ar
@<TRIPOS>MOLECULE
*****
 43 45 0 0 0
SMALL
GASTEIGER

@<TRIPOS>ATOM
      1 P          22.9358   71.9622   -3.0092 P.3     1  UNL1        0.2189
      2 O          23.6188   70.5104   -3.2203 O.co2   1  UNL1       -0.4371
      3 O          22.8364   72.4140   -1.5817 O.2     1  UNL1       -0.5170
      4 O          21.5344   71.8524   -3.8105 O.3     1  UNL1       -0.3112
      5 C          20.6806   70.7578   -3.5327 C.3     1  UNL1        0.1811
      6 O          18.8579   71.8848   -4.6214 O.3     1  UNL1       -0.3308
      7 O          17.1097   70.7390   -2.4715 O.3     1  UNL1       -0.3794
      8 O          16.6274   69.0782   -4.5798 O.3     1  UNL1       -0.3779
      9 C          18.2426   70.1598   -3.1192 C.3     1  UNL1        0.1713
     10 C          17.8795   69.7291   -4.5245 C.3     1  UNL1        0.1895
     11 C          19.2540   71.2684   -3.3770 C.3     1  UNL1        0.1764
     12 C          17.8841   71.0523   -5.2710 C.3     1  UNL1        0.2383
     13 H          16.4495   70.0497   -2.2964 H       1  UNL1        0.2105
     14 H          16.6762   68.2414   -4.0905 H       1  UNL1        0.2106
     15 O          16.0596   70.4482   -7.3405 O.2     1  UNL1       -0.2464
     16 O          19.3836   70.4955  -10.5330 O.2     1  UNL1       -0.2670
     17 N          18.2458   70.9011   -6.6520 N.ar    1  UNL1       -0.2551
     18 N          17.7170   70.4713   -8.9284 N.ar    1  UNL1       -0.2743
     19 C          17.2523   70.5971   -7.6126 C.ar    1  UNL1        0.3323
     20 C          19.5703   71.0552   -7.0430 C.ar    1  UNL1        0.0869
     21 C          19.9980   70.9324   -8.3010 C.ar    1  UNL1        0.0795
     22 C          19.0238   70.6149   -9.3657 C.ar    1  UNL1        0.2626
     23 H          17.0441   70.2579   -9.6146 H       1  UNL1        0.1734
     24 O          23.8234   72.9225   -3.9592 O.3     1  UNL1       -0.2703
     25 P          23.9166   74.5340   -4.0491 P.3     1  UNL1        0.2208
     26 O          25.5089   74.8168   -3.9793 O.co2   1  UNL1       -0.4371
     27 O          23.1140   75.2564   -3.0061 O.2     1  UNL1       -0.5170
     28 O          23.5072   74.8835   -5.5699 O.3     1  UNL1       -0.2858
     29 O          24.0392   76.8502   -6.7775 O.3     1  UNL1       -0.3226
     30 O          20.5117   75.6829   -8.5837 O.3     1  UNL1       -0.3794
     31 O          20.8068   75.5405   -5.6807 O.3     1  UNL1       -0.3775
     32 O          23.0521   75.2537   -9.9301 O.3     1  UNL1       -0.3792
     33 C          21.7572   75.4927   -7.9125 C.3     1  UNL1        0.1718
     34 C          21.7194   76.1947   -6.5548 C.3     1  UNL1        0.1968
     35 C          22.8622   76.0873   -8.7885 C.3     1  UNL1        0.1723
     36 C          23.1050   76.2097   -5.9078 C.3     1  UNL1        0.2706
     37 C          24.1828   76.1842   -8.0301 C.3     1  UNL1        0.1830
     38 H          19.7944   75.3128   -8.0455 H       1  UNL1        0.2105
     39 H          19.9256   75.5271   -6.0851 H       1  UNL1        0.2106
     40 H          22.2188   75.1836  -10.4216 H       1  UNL1        0.2106
     41 O          25.7485   76.3640   -9.7673 O.co2   1  UNL1       -0.5466
     42 O          25.3816   78.2244   -8.5011 O.co2   1  UNL1       -0.5466
     43 C          25.1527   77.0531   -8.7627 C.2     1  UNL1        0.0799
@<TRIPOS>UNITY_ATOM_ATTR
2 1
charge -1
26 1
charge -1
41 1
charge -1
@<TRIPOS>BOND
     1     1     4    1
     2     1    24    1
     3     1     2    1
     4     1     3    2
     5    25    28    1
     6    25    24    1
     7    25    26    1
     8    25    27    2
     9     6    11    1
    10     6    12    1
    11    29    36    1
    12    29    37    1
    13     7     9    1
    14     7    13    1
    15     8    10    1
    16     8    14    1
    17     4     5    1
    18    28    36    1
    19    30    33    1
    20    30    38    1
    21    31    34    1
    22    31    39    1
    23    32    35    1
    24    32    40    1
    25    41    43   ar
    26    15    19    2
    27    42    43   ar
    28    16    22    2
    29    17    12    1
    30    17    19   ar
    31    17    20   ar
    32    18    19   ar
    33    18    22   ar
    34    18    23    1
    35     9    10    1
    36     9    11    1
    37    10    12    1
    38    11     5    1
    39    33    34    1
    40    33    35    1
    41    34    36    1
    42    35    37    1
    43    37    43    1
    44    20    21   ar
    45    21    22   ar
@<TRIPOS>MOLECULE
*****
 43 45 0 0 0
SMALL
GASTEIGER

@<TRIPOS>ATOM
      1 P          22.9154   72.0573   -3.0805 P.3     1  UNL1        0.2189
      2 O          23.6585   70.6305   -3.2558 O.co2   1  UNL1       -0.4371
      3 O          22.7548   72.5179   -1.6613 O.2     1  UNL1       -0.5170
      4 O          21.5448   71.8878   -3.9235 O.3     1  UNL1       -0.3112
      5 C          20.6919   70.8005   -3.6159 C.3     1  UNL1        0.1811
      6 O          18.8587   71.9026   -4.7123 O.3     1  UNL1       -0.3308
      7 O          17.1327   70.8126   -2.5158 O.3     1  UNL1       -0.3794
      8 O          16.6258   69.1008   -4.5771 O.3     1  UNL1       -0.3779
      9 C          18.2579   70.2161   -3.1613 C.3     1  UNL1        0.1713
     10 C          17.8791   69.7513   -4.5515 C.3     1  UNL1        0.1895
     11 C          19.2676   71.3167   -3.4574 C.3     1  UNL1        0.1764
     12 C          17.8769   71.0556   -5.3305 C.3     1  UNL1        0.2383
     13 H          16.4737   70.1287   -2.3166 H       1  UNL1        0.2105
     14 H          16.6790   68.2763   -4.0678 H       1  UNL1        0.2106
     15 O          16.0199   70.4681   -7.3756 O.2     1  UNL1       -0.2464
     16 O          19.3191   70.3636  -10.5925 O.2     1  UNL1       -0.2670
     17 N          18.2234   70.8699   -6.7112 N.ar    1  UNL1       -0.2551
     18 N          17.6650   70.4156   -8.9757 N.ar    1  UNL1       -0.2743
     19 C          17.2143   70.5778   -7.6590 C.ar    1  UNL1        0.3323
     20 C          19.5487   70.9789   -7.1144 C.ar    1  UNL1        0.0869
     21 C          19.9630   70.8217   -8.3732 C.ar    1  UNL1        0.0795
     22 C          18.9719   70.5137   -9.4249 C.ar    1  UNL1        0.2626
     23 H          16.9809   70.2096   -9.6531 H       1  UNL1        0.1734
     24 O          23.7958   73.0419   -4.0123 O.3     1  UNL1       -0.2703
     25 P          23.8456   74.6553   -4.1018 P.3     1  UNL1        0.2208
     26 O          25.4317   74.9782   -4.0803 O.co2   1  UNL1       -0.4371
     27 O          23.0574   75.3559   -3.0333 O.2     1  UNL1       -0.5170
     28 O          23.3811   74.9962   -5.6086 O.3     1  UNL1       -0.2858
     29 O          21.3699   75.9351   -6.4351 O.3     1  UNL1       -0.3226
     30 O          22.3996   73.3397   -9.4800 O.3     1  UNL1       -0.3794
     31 O          22.6783   72.5305   -6.6868 O.3     1  UNL1       -0.3775
     32 O          22.8062   76.2002   -9.8010 O.3     1  UNL1       -0.3792
     33 C          22.6392   74.2452   -8.4027 C.3     1  UNL1        0.1718
     34 C          21.9991   73.7015   -7.1252 C.3     1  UNL1        0.1968
     35 C          22.0224   75.5956   -8.7740 C.3     1  UNL1        0.1723
     36 C          22.0349   74.7455   -6.0082 C.3     1  UNL1        0.2706
     37 C          21.9804   76.5375   -7.5742 C.3     1  UNL1        0.1830
     38 H          22.7828   72.4743   -9.2666 H       1  UNL1        0.2105
     39 H          22.6598   71.8638   -7.3908 H       1  UNL1        0.2106
     40 H          22.8411   75.6107  -10.5705 H       1  UNL1        0.2106
     41 O          20.3696   77.5052   -8.9780 O.co2   1  UNL1       -0.5466
     42 O          21.0238   78.7131   -7.1580 O.co2   1  UNL1       -0.5466
     43 C          21.0941   77.7084   -7.8498 C.2     1  UNL1        0.0799
@<TRIPOS>UNITY_ATOM_ATTR
2 1
charge -1
26 1
charge -1
41 1
charge -1
@<TRIPOS>BOND
     1     1     4    1
     2     1    24    1
     3     1     2    1
     4     1     3    2
     5    25    28    1
     6    25    24    1
     7    25    26    1
     8    25    27    2
     9     6    11    1
    10     6    12    1
    11    29    36    1
    12    29    37    1
    13     7     9    1
    14     7    13    1
    15     8    10    1
    16     8    14    1
    17     4     5    1
    18    28    36    1
    19    30    33    1
    20    30    38    1
    21    31    34    1
    22    31    39    1
    23    32    35    1
    24    32    40    1
    25    41    43   ar
    26    15    19    2
    27    42    43   ar
    28    16    22    2
    29    17    12    1
    30    17    19   ar
    31    17    20   ar
    32    18    19   ar
    33    18    22   ar
    34    18    23    1
    35     9    10    1
    36     9    11    1
    37    10    12    1
    38    11     5    1
    39    33    34    1
    40    33    35    1
    41    34    36    1
    42    35    37    1
    43    37    43    1
    44    20    21   ar
    45    21    22   ar
@<TRIPOS>MOLECULE
*****
 43 45 0 0 0
SMALL
GASTEIGER

@<TRIPOS>ATOM
      1 P          21.7314   71.1399   -1.0084 P.3     1  UNL1        0.2189
      2 O          23.0785   70.6866   -1.7821 O.co2   1  UNL1       -0.4371
      3 O          20.8818   70.0116   -0.5015 O.2     1  UNL1       -0.5170
      4 O          21.0102   72.1520   -2.0444 O.3     1  UNL1       -0.3112
      5 C          20.3942   71.6119   -3.1991 C.3     1  UNL1        0.1811
      6 O          18.4768   72.3646   -4.4381 O.3     1  UNL1       -0.3308
      7 O          16.8197   71.0732   -2.2985 O.3     1  UNL1       -0.3794
      8 O          16.7234   69.2398   -4.3147 O.3     1  UNL1       -0.3779
      9 C          18.0639   70.6502   -2.8566 C.3     1  UNL1        0.1713
     10 C          17.8508   70.0876   -4.2460 C.3     1  UNL1        0.1895
     11 C          18.8980   71.8920   -3.1402 C.3     1  UNL1        0.1764
     12 C          17.6849   71.3496   -5.0752 C.3     1  UNL1        0.2383
     13 H          16.2693   70.2968   -2.1088 H       1  UNL1        0.2105
     14 H          16.8784   68.4510   -3.7708 H       1  UNL1        0.2106
     15 O          16.0867   70.3671   -7.1864 O.2     1  UNL1       -0.2464
     16 O          19.5374   70.7463  -10.2183 O.2     1  UNL1       -0.2670
     17 N          18.1403   71.1814   -6.4262 N.ar    1  UNL1       -0.2551
     18 N          17.8072   70.5559   -8.6942 N.ar    1  UNL1       -0.2743
     19 C          17.2573   70.6800   -7.4115 C.ar    1  UNL1        0.3323
     20 C          19.4468   71.5130   -6.7640 C.ar    1  UNL1        0.0869
     21 C          19.9566   71.3894   -7.9910 C.ar    1  UNL1        0.0795
     22 C          19.1003   70.8719   -9.0784 C.ar    1  UNL1        0.2626
     23 H          17.2121   70.2069   -9.3966 H       1  UNL1        0.1734
     24 O          22.2888   72.1316    0.1400 O.3     1  UNL1       -0.2703
     25 P          22.2047   73.7395    0.2862 P.3     1  UNL1        0.2208
     26 O          20.6518   74.0599   -0.0394 O.co2   1  UNL1       -0.4371
     27 O          23.1836   74.4878   -0.5715 O.2     1  UNL1       -0.5170
     28 O          22.3541   74.0149    1.8687 O.3     1  UNL1       -0.2858
     29 O          24.0605   73.4946    3.4265 O.3     1  UNL1       -0.3226
     30 O          20.6558   73.0082    5.7155 O.3     1  UNL1       -0.3794
     31 O          20.7427   72.0300    2.9641 O.3     1  UNL1       -0.3775
     32 O          22.3167   75.3698    6.0543 O.3     1  UNL1       -0.3792
     33 C          21.4635   73.5794    4.6863 C.3     1  UNL1        0.1718
     34 C          21.8738   72.4908    3.6942 C.3     1  UNL1        0.1968
     35 C          22.7012   74.1947    5.3432 C.3     1  UNL1        0.1723
     36 C          22.9221   73.0135    2.7110 C.3     1  UNL1        0.2706
     37 C          23.7523   74.5751    4.3044 C.3     1  UNL1        0.1830
     38 H          19.8631   72.6109    5.3216 H       1  UNL1        0.2105
     39 H          20.0734   71.6971    3.5818 H       1  UNL1        0.2106
     40 H          21.6478   75.1415    6.7186 H       1  UNL1        0.2106
     41 O          25.0915   76.1266    5.4449 O.co2   1  UNL1       -0.5466
     42 O          25.9911   74.0693    5.0482 O.co2   1  UNL1       -0.5466
     43 C          25.0649   74.8612    4.9581 C.2     1  UNL1        0.0799
@<TRIPOS>UNITY_ATOM_ATTR
2 1
charge -1
26 1
charge -1
41 1
charge -1
@<TRIPOS>BOND
     1     1     4    1
     2     1    24    1
     3     1     2    1
     4     1     3    2
     5    25    28    1
     6    25    24    1
     7    25    26    1
     8    25    27    2
     9     6    11    1
    10     6    12    1
    11    29    36    1
    12    29    37    1
    13     7     9    1
    14     7    13    1
    15     8    10    1
    16     8    14    1
    17     4     5    1
    18    28    36    1
    19    30    33    1
    20    30    38    1
    21    31    34    1
    22    31    39    1
    23    32    35    1
    24    32    40    1
    25    41    43   ar
    26    15    19    2
    27    42    43   ar
    28    16    22    2
    29    17    12    1
    30    17    19   ar
    31    17    20   ar
    32    18    19   ar
    33    18    22   ar
    34    18    23    1
    35     9    10    1
    36     9    11    1
    37    10    12    1
    38    11     5    1
    39    33    34    1
    40    33    35    1
    41    34    36    1
    42    35    37    1
    43    37    43    1
    44    20    21   ar
    45    21    22   ar
@<TRIPOS>MOLECULE
*****
 43 45 0 0 0
SMALL
GASTEIGER

@<TRIPOS>ATOM
      1 P          21.6047   70.5840   -1.0872 P.3     1  UNL1        0.2189
      2 O          23.1439   70.6275   -1.5852 O.co2   1  UNL1       -0.4371
      3 O          21.3753   69.8441    0.1980 O.2     1  UNL1       -0.5170
      4 O          20.7959   70.0266   -2.3729 O.3     1  UNL1       -0.3112
      5 C          20.5371   70.9137   -3.4456 C.3     1  UNL1        0.1811
      6 O          18.7302   71.9765   -4.6217 O.3     1  UNL1       -0.3308
      7 O          16.9357   70.8611   -2.4939 O.3     1  UNL1       -0.3794
      8 O          16.5476   69.1327   -4.5670 O.3     1  UNL1       -0.3779
      9 C          18.0979   70.2842   -3.0897 C.3     1  UNL1        0.1713
     10 C          17.7860   69.8073   -4.4924 C.3     1  UNL1        0.1895
     11 C          19.0978   71.4029   -3.3484 C.3     1  UNL1        0.1764
     12 C          17.7913   71.1085   -5.2764 C.3     1  UNL1        0.2383
     13 H          16.2822   70.1654   -2.3193 H       1  UNL1        0.2105
     14 H          16.5954   68.3111   -4.0525 H       1  UNL1        0.2106
     15 O          16.0325   70.4765   -7.3938 O.2     1  UNL1       -0.2464
     16 O          19.4635   70.4260  -10.4711 O.2     1  UNL1       -0.2670
     17 N          18.1983   70.9246   -6.6407 N.ar    1  UNL1       -0.2551
     18 N          17.7432   70.4510   -8.9243 N.ar    1  UNL1       -0.2743
     19 C          17.2352   70.6090   -7.6281 C.ar    1  UNL1        0.3323
     20 C          19.5368   71.0586   -6.9893 C.ar    1  UNL1        0.0869
     21 C          20.0058   70.9051   -8.2291 C.ar    1  UNL1        0.0795
     22 C          19.0654   70.5735   -9.3196 C.ar    1  UNL1        0.2626
     23 H          17.0920   70.2289   -9.6285 H       1  UNL1        0.1734
     24 O          21.1919   72.1463   -1.0476 O.3     1  UNL1       -0.2703
     25 P          21.8856   73.4093   -0.3145 P.3     1  UNL1        0.2208
     26 O          21.3130   74.6774   -1.1417 O.co2   1  UNL1       -0.4371
     27 O          23.3839   73.3378   -0.2513 O.2     1  UNL1       -0.5170
     28 O          21.1584   73.4985    1.1227 O.3     1  UNL1       -0.2858
     29 O          20.3745   75.3443    2.3828 O.3     1  UNL1       -0.3226
     30 O          21.7008   72.7997    5.3550 O.3     1  UNL1       -0.3794
     31 O          23.2611   73.1640    2.9122 O.3     1  UNL1       -0.3775
     32 O          18.8534   73.0925    4.8480 O.3     1  UNL1       -0.3792
     33 C          21.1392   73.1432    4.0883 C.3     1  UNL1        0.1718
     34 C          22.1481   73.9670    3.2876 C.3     1  UNL1        0.1968
     35 C          19.8677   73.9568    4.3396 C.3     1  UNL1        0.1723
     36 C          21.5040   74.5460    2.0271 C.3     1  UNL1        0.2706
     37 C          19.3579   74.6047    3.0555 C.3     1  UNL1        0.1830
     38 H          22.5103   72.2821    5.2204 H       1  UNL1        0.2105
     39 H          23.6745   72.7931    3.7072 H       1  UNL1        0.2106
     40 H          19.1653   72.6735    5.6654 H       1  UNL1        0.2106
     41 O          17.2178   75.0806    3.8892 O.co2   1  UNL1       -0.5466
     42 O          18.4663   76.8442    3.1610 O.co2   1  UNL1       -0.5466
     43 C          18.3303   75.6461    3.3586 C.2     1  UNL1        0.0799
@<TRIPOS>UNITY_ATOM_ATTR
2 1
charge -1
26 1
charge -1
41 1
charge -1
@<TRIPOS>BOND
     1     1     4    1
     2     1    24    1
     3     1     2    1
     4     1     3    2
     5    25    28    1
     6    25    24    1
     7    25    26    1
     8    25    27    2
     9     6    11    1
    10     6    12    1
    11    29    36    1
    12    29    37    1
    13     7     9    1
    14     7    13    1
    15     8    10    1
    16     8    14    1
    17     4     5    1
    18    28    36    1
    19    30    33    1
    20    30    38    1
    21    31    34    1
    22    31    39    1
    23    32    35    1
    24    32    40    1
    25    41    43   ar
    26    15    19    2
    27    42    43   ar
    28    16    22    2
    29    17    12    1
    30    17    19   ar
    31    17    20   ar
    32    18    19   ar
    33    18    22   ar
    34    18    23    1
    35     9    10    1
    36     9    11    1
    37    10    12    1
    38    11     5    1
    39    33    34    1
    40    33    35    1
    41    34    36    1
    42    35    37    1
    43    37    43    1
    44    20    21   ar
    45    21    22   ar
@<TRIPOS>MOLECULE
*****
 43 45 0 0 0
SMALL
GASTEIGER

@<TRIPOS>ATOM
      1 P          22.3105   73.1021   -4.3696 P.3     1  UNL1        0.2189
      2 O          21.8159   74.1501   -3.2400 O.co2   1  UNL1       -0.4371
      3 O          23.7994   72.9711   -4.5039 O.2     1  UNL1       -0.5170
      4 O          21.5231   73.5686   -5.7039 O.3     1  UNL1       -0.3112
      5 C          21.3719   74.9546   -5.9499 C.3     1  UNL1        0.1811
      6 O          20.8214   73.9715   -8.0731 O.3     1  UNL1       -0.3308
      7 O          20.6856   76.7756   -9.1265 O.3     1  UNL1       -0.3794
      8 O          18.0568   76.1463   -8.7670 O.3     1  UNL1       -0.3779
      9 C          20.3038   76.2718   -7.8464 C.3     1  UNL1        0.1713
     10 C          19.0095   75.4936   -7.9542 C.3     1  UNL1        0.1895
     11 C          21.2965   75.1863   -7.4535 C.3     1  UNL1        0.1764
     12 C          19.4815   74.1774   -8.5482 C.3     1  UNL1        0.2383
     13 H          20.0658   77.4708   -9.3988 H       1  UNL1        0.2105
     14 H          17.7880   76.9782   -8.3456 H       1  UNL1        0.2106
     15 O          18.9983   71.8873  -10.1289 O.2     1  UNL1       -0.2464
     16 O          16.3361   69.9845   -6.8830 O.2     1  UNL1       -0.2670
     17 N          18.6660   73.0685   -8.1407 N.ar    1  UNL1       -0.2551
     18 N          17.6720   70.9422   -8.5111 N.ar    1  UNL1       -0.2743
     19 C          18.4873   71.9666   -9.0102 C.ar    1  UNL1        0.3323
     20 C          18.0551   73.0786   -6.8926 C.ar    1  UNL1        0.0869
     21 C          17.2808   72.0947   -6.4308 C.ar    1  UNL1        0.0795
     22 C          17.0425   70.9073   -7.2774 C.ar    1  UNL1        0.2626
     23 H          17.5312   70.1654   -9.0994 H       1  UNL1        0.1734
     24 O          21.5490   71.7373   -3.9567 O.3     1  UNL1       -0.2703
     25 P          21.8906   70.6309   -2.8286 P.3     1  UNL1        0.2208
     26 O          23.4943   70.4532   -2.9584 O.co2   1  UNL1       -0.4371
     27 O          21.1139   69.3532   -2.9641 O.2     1  UNL1       -0.5170
     28 O          21.6781   71.3979   -1.4254 O.3     1  UNL1       -0.2858
     29 O          23.2833   72.8421   -0.4525 O.3     1  UNL1       -0.3226
     30 O          21.0690   71.7038    2.8443 O.3     1  UNL1       -0.3794
     31 O          21.8063   69.7440    0.8072 O.3     1  UNL1       -0.3775
     32 O          20.7160   74.3493    1.6922 O.3     1  UNL1       -0.3792
     33 C          21.2918   72.0203    1.4702 C.3     1  UNL1        0.1718
     34 C          22.3321   71.0638    0.8869 C.3     1  UNL1        0.1968
     35 C          21.7935   73.4640    1.3928 C.3     1  UNL1        0.1723
     36 C          22.7656   71.5124   -0.5094 C.3     1  UNL1        0.2706
     37 C          22.3248   73.7953    0.0012 C.3     1  UNL1        0.1830
     38 H          20.7496   70.7906    2.9183 H       1  UNL1        0.2105
     39 H          21.5290   69.4530    1.6897 H       1  UNL1        0.2106
     40 H          20.3687   74.1489    2.5754 H       1  UNL1        0.2106
     41 O          24.4328   74.8214   -0.0712 O.co2   1  UNL1       -0.5466
     42 O          22.6161   76.1882    0.1039 O.co2   1  UNL1       -0.5466
     43 C          23.1029   75.0706    0.0202 C.2     1  UNL1        0.0799
@<TRIPOS>UNITY_ATOM_ATTR
2 1
charge -1
26 1
charge -1
41 1
charge -1
@<TRIPOS>BOND
     1     1     4    1
     2     1    24    1
     3     1     2    1
     4     1     3    2
     5    25    28    1
     6    25    24    1
     7    25    26    1
     8    25    27    2
     9     6    11    1
    10     6    12    1
    11    29    36    1
    12    29    37    1
    13     7     9    1
    14     7    13    1
    15     8    10    1
    16     8    14    1
    17     4     5    1
    18    28    36    1
    19    30    33    1
    20    30    38    1
    21    31    34    1
    22    31    39    1
    23    32    35    1
    24    32    40    1
    25    41    43   ar
    26    15    19    2
    27    42    43   ar
    28    16    22    2
    29    17    12    1
    30    17    19   ar
    31    17    20   ar
    32    18    19   ar
    33    18    22   ar
    34    18    23    1
    35     9    10    1
    36     9    11    1
    37    10    12    1
    38    11     5    1
    39    33    34    1
    40    33    35    1
    41    34    36    1
    42    35    37    1
    43    37    43    1
    44    20    21   ar
    45    21    22   ar
@<TRIPOS>MOLECULE
*****
 43 45 0 0 0
SMALL
GASTEIGER

@<TRIPOS>ATOM
      1 P          21.7318   73.5422   -6.2693 P.3     1  UNL1        0.2189
      2 O          21.8874   75.1366   -6.4987 O.co2   1  UNL1       -0.4371
      3 O          22.7685   72.6996   -6.9526 O.2     1  UNL1       -0.5170
      4 O          20.1967   73.2384   -6.6808 O.3     1  UNL1       -0.3112
      5 C          19.4523   72.3292   -5.8911 C.3     1  UNL1        0.1811
      6 O          17.3081   72.2976   -6.9770 O.3     1  UNL1       -0.3308
      7 O          18.4433   70.1590   -8.7461 O.3     1  UNL1       -0.3794
      8 O          18.6004   72.3801  -10.3203 O.3     1  UNL1       -0.3779
      9 C          19.0845   71.3083   -8.1922 C.3     1  UNL1        0.1713
     10 C          18.6388   72.5589   -8.9199 C.3     1  UNL1        0.1895
     11 C          18.5202   71.5338   -6.7961 C.3     1  UNL1        0.1764
     12 C          17.2624   72.7975   -8.3229 C.3     1  UNL1        0.2383
     13 H          18.7876   69.9949   -9.6384 H       1  UNL1        0.2105
     14 H          19.5004   72.2320  -10.6521 H       1  UNL1        0.2106
     15 O          14.6369   73.7887   -8.6409 O.2     1  UNL1       -0.2464
     16 O          16.0356   78.1570   -8.1880 O.2     1  UNL1       -0.2670
     17 N          16.9121   74.1894   -8.2924 N.ar    1  UNL1       -0.2551
     18 N          15.3362   75.9635   -8.4160 N.ar    1  UNL1       -0.2743
     19 C          15.5633   74.5817   -8.4627 C.ar    1  UNL1        0.3323
     20 C          17.8979   75.1484   -8.0940 C.ar    1  UNL1        0.0869
     21 C          17.6660   76.4619   -8.0518 C.ar    1  UNL1        0.0795
     22 C          16.2837   76.9555   -8.2219 C.ar    1  UNL1        0.2626
     23 H          14.4051   76.2610   -8.5342 H       1  UNL1        0.1734
     24 O          21.7096   73.4078   -4.6586 O.3     1  UNL1       -0.2703
     25 P          22.6971   72.6260   -3.6450 P.3     1  UNL1        0.2208
     26 O          24.1156   73.3759   -3.8588 O.co2   1  UNL1       -0.4371
     27 O          22.7450   71.1403   -3.8554 O.2     1  UNL1       -0.5170
     28 O          22.2150   73.0786   -2.1735 O.3     1  UNL1       -0.2858
     29 O          21.4454   71.2899   -0.8254 O.3     1  UNL1       -0.3226
     30 O          20.4059   74.5718    1.4587 O.3     1  UNL1       -0.3794
     31 O          20.0025   74.5934   -1.4346 O.3     1  UNL1       -0.3775
     32 O          22.7014   72.9480    2.1971 O.3     1  UNL1       -0.3792
     33 C          21.1964   73.8259    0.5330 C.3     1  UNL1        0.1718
     34 C          20.3419   73.4394   -0.6745 C.3     1  UNL1        0.1968
     35 C          21.7050   72.5722    1.2482 C.3     1  UNL1        0.1723
     36 C          21.0829   72.4501   -1.5750 C.3     1  UNL1        0.2706
     37 C          22.3180   71.5797    0.2645 C.3     1  UNL1        0.1830
     38 H          20.0717   75.3734    1.0263 H       1  UNL1        0.2105
     39 H          19.5322   75.2256   -0.8693 H       1  UNL1        0.2106
     40 H          22.3241   73.5798    2.8291 H       1  UNL1        0.2106
     41 O          21.5355   69.3829    0.5159 O.co2   1  UNL1       -0.5466
     42 O          23.4113   69.9582    1.6776 O.co2   1  UNL1       -0.5466
     43 C          22.5072   70.2441    0.9070 C.2     1  UNL1        0.0799
@<TRIPOS>UNITY_ATOM_ATTR
2 1
charge -1
26 1
charge -1
41 1
charge -1
@<TRIPOS>BOND
     1     1     4    1
     2     1    24    1
     3     1     2    1
     4     1     3    2
     5    25    28    1
     6    25    24    1
     7    25    26    1
     8    25    27    2
     9     6    11    1
    10     6    12    1
    11    29    36    1
    12    29    37    1
    13     7     9    1
    14     7    13    1
    15     8    10    1
    16     8    14    1
    17     4     5    1
    18    28    36    1
    19    30    33    1
    20    30    38    1
    21    31    34    1
    22    31    39    1
    23    32    35    1
    24    32    40    1
    25    41    43   ar
    26    15    19    2
    27    42    43   ar
    28    16    22    2
    29    17    12    1
    30    17    19   ar
    31    17    20   ar
    32    18    19   ar
    33    18    22   ar
    34    18    23    1
    35     9    10    1
    36     9    11    1
    37    10    12    1
    38    11     5    1
    39    33    34    1
    40    33    35    1
    41    34    36    1
    42    35    37    1
    43    37    43    1
    44    20    21   ar
    45    21    22   ar
@<TRIPOS>MOLECULE
*****
 43 45 0 0 0
SMALL
GASTEIGER

@<TRIPOS>ATOM
      1 P          22.3932   72.9997   -4.4609 P.3     1  UNL1        0.2189
      2 O          23.7515   72.2614   -3.9825 O.co2   1  UNL1       -0.4371
      3 O          21.8914   74.0667   -3.5326 O.2     1  UNL1       -0.5170
      4 O          21.3691   71.7806   -4.7490 O.3     1  UNL1       -0.3112
      5 C          20.7868   71.1115   -3.6454 C.3     1  UNL1        0.1811
      6 O          18.8967   72.1076   -4.7467 O.3     1  UNL1       -0.3308
      7 O          17.2526   71.0594   -2.4686 O.3     1  UNL1       -0.3794
      8 O          16.7586   69.2456   -4.4440 O.3     1  UNL1       -0.3779
      9 C          18.3828   70.4713   -3.1130 C.3     1  UNL1        0.1713
     10 C          17.9905   69.9356   -4.4736 C.3     1  UNL1        0.1895
     11 C          19.3501   71.5892   -3.4775 C.3     1  UNL1        0.1764
     12 C          17.9302   71.2045   -5.3068 C.3     1  UNL1        0.2383
     13 H          16.6203   70.3643   -2.2262 H       1  UNL1        0.2105
     14 H          16.8489   68.4458   -3.9017 H       1  UNL1        0.2106
     15 O          16.0563   70.4419   -7.2775 O.2     1  UNL1       -0.2464
     16 O          19.2843   70.3343  -10.5657 O.2     1  UNL1       -0.2670
     17 N          18.2538   70.9706   -6.6857 N.ar    1  UNL1       -0.2551
     18 N          17.6660   70.3880   -8.9131 N.ar    1  UNL1       -0.2743
     19 C          17.2379   70.5909   -7.5945 C.ar    1  UNL1        0.3323
     20 C          19.5635   71.1190   -7.1255 C.ar    1  UNL1        0.0869
     21 C          19.9563   70.9223   -8.3856 C.ar    1  UNL1        0.0795
     22 C          18.9569   70.5227   -9.3980 C.ar    1  UNL1        0.2626
     23 H          16.9770   70.1211   -9.5637 H       1  UNL1        0.1734
     24 O          22.7662   73.5195   -5.9453 O.3     1  UNL1       -0.2703
     25 P          22.3181   74.8493   -6.7480 P.3     1  UNL1        0.2208
     26 O          22.8137   76.0495   -5.7814 O.co2   1  UNL1       -0.4371
     27 O          20.8580   74.8970   -7.0942 O.2     1  UNL1       -0.5170
     28 O          23.3098   74.9140   -8.0187 O.3     1  UNL1       -0.2858
     29 O          22.3342   76.5479   -9.4286 O.3     1  UNL1       -0.3226
     30 O          25.8616   75.7219  -11.4145 O.3     1  UNL1       -0.3794
     31 O          24.2779   73.5618  -10.2481 O.3     1  UNL1       -0.3775
     32 O          25.5875   78.1809   -9.8884 O.3     1  UNL1       -0.3792
     33 C          25.0105   75.8744  -10.2785 C.3     1  UNL1        0.1718
     34 C          23.8326   74.9059  -10.3878 C.3     1  UNL1        0.1968
     35 C          24.5101   77.3204  -10.2533 C.3     1  UNL1        0.1723
     36 C          22.7834   75.1971   -9.3139 C.3     1  UNL1        0.2706
     37 C          23.3788   77.5009   -9.2452 C.3     1  UNL1        0.1830
     38 H          26.1917   74.8103  -11.4513 H       1  UNL1        0.2105
     39 H          24.9441   73.3702  -10.9263 H       1  UNL1        0.2106
     40 H          26.3143   78.0756  -10.5220 H       1  UNL1        0.2106
     41 O          22.7319   79.5623   -8.3321 O.co2   1  UNL1       -0.5466
     42 O          22.1442   79.1533  -10.4969 O.co2   1  UNL1       -0.5466
     43 C          22.6831   78.8061   -9.4567 C.2     1  UNL1        0.0799
@<TRIPOS>UNITY_ATOM_ATTR
2 1
charge -1
26 1
charge -1
41 1
charge -1
@<TRIPOS>BOND
     1     1     4    1
     2     1    24    1
     3     1     2    1
     4     1     3    2
     5    25    28    1
     6    25    24    1
     7    25    26    1
     8    25    27    2
     9     6    11    1
    10     6    12    1
    11    29    36    1
    12    29    37    1
    13     7     9    1
    14     7    13    1
    15     8    10    1
    16     8    14    1
    17     4     5    1
    18    28    36    1
    19    30    33    1
    20    30    38    1
    21    31    34    1
    22    31    39    1
    23    32    35    1
    24    32    40    1
    25    41    43   ar
    26    15    19    2
    27    42    43   ar
    28    16    22    2
    29    17    12    1
    30    17    19   ar
    31    17    20   ar
    32    18    19   ar
    33    18    22   ar
    34    18    23    1
    35     9    10    1
    36     9    11    1
    37    10    12    1
    38    11     5    1
    39    33    34    1
    40    33    35    1
    41    34    36    1
    42    35    37    1
    43    37    43    1
    44    20    21   ar
    45    21    22   ar
@<TRIPOS>MOLECULE
*****
 43 45 0 0 0
SMALL
GASTEIGER

@<TRIPOS>ATOM
      1 P          22.0001   71.0268   -1.4416 P.3     1  UNL1        0.2189
      2 O          23.2226   70.4904   -2.3563 O.co2   1  UNL1       -0.4371
      3 O          21.1521   69.9534   -0.8247 O.2     1  UNL1       -0.5170
      4 O          21.2232   72.0697   -2.4042 O.3     1  UNL1       -0.3112
      5 C          20.5543   71.5664   -3.5461 C.3     1  UNL1        0.1811
      6 O          18.5822   72.3153   -4.6983 O.3     1  UNL1       -0.3308
      7 O          17.0260   71.0632   -2.4617 O.3     1  UNL1       -0.3794
      8 O          16.8186   69.2039   -4.4458 O.3     1  UNL1       -0.3779
      9 C          18.2383   70.6246   -3.0752 C.3     1  UNL1        0.1713
     10 C          17.9530   70.0452   -4.4446 C.3     1  UNL1        0.1895
     11 C          19.0646   71.8570   -3.4166 C.3     1  UNL1        0.1764
     12 C          17.7535   71.2972   -5.2815 C.3     1  UNL1        0.2383
     13 H          16.4811   70.2930   -2.2345 H       1  UNL1        0.2105
     14 H          16.9958   68.4214   -3.8997 H       1  UNL1        0.2106
     15 O          16.0285   70.3568   -7.3105 O.2     1  UNL1       -0.2464
     16 O          19.3451   70.6109  -10.5010 O.2     1  UNL1       -0.2670
     17 N          18.1401   71.1083   -6.6511 N.ar    1  UNL1       -0.2551
     18 N          17.6823   70.4833   -8.8974 N.ar    1  UNL1       -0.2743
     19 C          17.1968   70.6309   -7.5914 C.ar    1  UNL1        0.3323
     20 C          19.4394   71.3961   -7.0509 C.ar    1  UNL1        0.0869
     21 C          19.8874   71.2505   -8.2995 C.ar    1  UNL1        0.0795
     22 C          18.9655   70.7558   -9.3429 C.ar    1  UNL1        0.2626
     23 H          17.0444   70.1504   -9.5694 H       1  UNL1        0.1734
     24 O          22.7396   71.9947   -0.3790 O.3     1  UNL1       -0.2703
     25 P          22.5307   73.5632   -0.0478 P.3     1  UNL1        0.2208
     26 O          23.0388   73.6887    1.4840 O.co2   1  UNL1       -0.4371
     27 O          21.1330   74.0605   -0.2783 O.2     1  UNL1       -0.5170
     28 O          23.6617   74.3189   -0.9151 O.3     1  UNL1       -0.2858
     29 O          23.4319   76.4289   -1.9658 O.3     1  UNL1       -0.3226
     30 O          26.3183   74.6314   -4.3122 O.3     1  UNL1       -0.3794
     31 O          23.9953   73.1132   -3.3993 O.3     1  UNL1       -0.3775
     32 O          27.0676   76.6805   -2.3911 O.3     1  UNL1       -0.3792
     33 C          25.6036   74.9060   -3.1073 C.3     1  UNL1        0.1718
     34 C          24.1338   74.5248   -3.2859 C.3     1  UNL1        0.1968
     35 C          25.7332   76.4018   -2.8111 C.3     1  UNL1        0.1723
     36 C          23.2942   75.0143   -2.1051 C.3     1  UNL1        0.2706
     37 C          24.7736   76.8363   -1.7070 C.3     1  UNL1        0.1830
     38 H          26.2499   73.6863   -4.5206 H       1  UNL1        0.2105
     39 H          24.5256   72.7957   -4.1465 H       1  UNL1        0.2106
     40 H          27.6884   76.4084   -3.0850 H       1  UNL1        0.2106
     41 O          25.6069   78.8423   -0.8220 O.co2   1  UNL1       -0.5466
     42 O          23.8514   78.9938   -2.2692 O.co2   1  UNL1       -0.5466
     43 C          24.6674   78.3256   -1.6523 C.2     1  UNL1        0.0799
@<TRIPOS>UNITY_ATOM_ATTR
2 1
charge -1
26 1
charge -1
41 1
charge -1
@<TRIPOS>BOND
     1     1     4    1
     2     1    24    1
     3     1     2    1
     4     1     3    2
     5    25    28    1
     6    25    24    1
     7    25    26    1
     8    25    27    2
     9     6    11    1
    10     6    12    1
    11    29    36    1
    12    29    37    1
    13     7     9    1
    14     7    13    1
    15     8    10    1
    16     8    14    1
    17     4     5    1
    18    28    36    1
    19    30    33    1
    20    30    38    1
    21    31    34    1
    22    31    39    1
    23    32    35    1
    24    32    40    1
    25    41    43   ar
    26    15    19    2
    27    42    43   ar
    28    16    22    2
    29    17    12    1
    30    17    19   ar
    31    17    20   ar
    32    18    19   ar
    33    18    22   ar
    34    18    23    1
    35     9    10    1
    36     9    11    1
    37    10    12    1
    38    11     5    1
    39    33    34    1
    40    33    35    1
    41    34    36    1
    42    35    37    1
    43    37    43    1
    44    20    21   ar
    45    21    22   ar
@<TRIPOS>MOLECULE
*****
 43 45 0 0 0
SMALL
GASTEIGER

@<TRIPOS>ATOM
      1 P          22.0670   73.3645   -5.3224 P.3     1  UNL1        0.2189
      2 O          22.1511   74.9173   -5.7702 O.co2   1  UNL1       -0.4371
      3 O          23.3565   72.7768   -4.8287 O.2     1  UNL1       -0.5170
      4 O          21.4025   72.6271   -6.6001 O.3     1  UNL1       -0.3112
      5 C          20.8920   73.4258   -7.6517 C.3     1  UNL1        0.1811
      6 O          19.9982   71.2317   -8.0574 O.3     1  UNL1       -0.3308
      7 O          18.4949   72.4688  -10.3380 O.3     1  UNL1       -0.3794
      8 O          16.5899   72.2919   -8.3949 O.3     1  UNL1       -0.3779
      9 C          18.8124   73.0204   -9.0600 C.3     1  UNL1        0.1713
     10 C          17.9385   72.4008   -7.9900 C.3     1  UNL1        0.1895
     11 C          20.1975   72.5261   -8.6658 C.3     1  UNL1        0.1764
     12 C          18.5994   71.0480   -7.7875 C.3     1  UNL1        0.2383
     13 H          17.6140   72.7706  -10.6111 H       1  UNL1        0.2105
     14 H          16.2143   73.1793   -8.5102 H       1  UNL1        0.2106
     15 O          16.1724   70.0772   -6.7179 O.2     1  UNL1       -0.2464
     16 O          18.1160   69.1886   -2.6341 O.2     1  UNL1       -0.2670
     17 N          18.4430   70.5568   -6.4476 N.ar    1  UNL1       -0.2551
     18 N          17.1425   69.6365   -4.6847 N.ar    1  UNL1       -0.2743
     19 C          17.1806   70.0918   -6.0092 C.ar    1  UNL1        0.3323
     20 C          19.5318   70.5374   -5.5845 C.ar    1  UNL1        0.0869
     21 C          19.4801   70.1004   -4.3247 C.ar    1  UNL1        0.0795
     22 C          18.1982   69.5983   -3.7881 C.ar    1  UNL1        0.2626
     23 H          16.2738   69.3097   -4.3561 H       1  UNL1        0.1734
     24 O          20.8681   73.3638   -4.2382 O.3     1  UNL1       -0.2703
     25 P          20.7874   73.9769   -2.7445 P.3     1  UNL1        0.2208
     26 O          19.2082   74.2762   -2.5523 O.co2   1  UNL1       -0.4371
     27 O          21.6743   75.1670   -2.5186 O.2     1  UNL1       -0.5170
     28 O          21.0860   72.7252   -1.7716 O.3     1  UNL1       -0.2858
     29 O          22.9129   73.2407   -0.3554 O.3     1  UNL1       -0.3226
     30 O          22.0716   69.3474    0.7411 O.3     1  UNL1       -0.3794
     31 O          22.0453   70.1319   -2.0728 O.3     1  UNL1       -0.3775
     32 O          21.2818   71.5516    2.4640 O.3     1  UNL1       -0.3792
     33 C          21.7729   70.6644    0.2784 C.3     1  UNL1        0.1718
     34 C          22.5434   70.9402   -1.0130 C.3     1  UNL1        0.1968
     35 C          22.1895   71.6544    1.3685 C.3     1  UNL1        0.1723
     36 C          22.4307   72.4118   -1.4137 C.3     1  UNL1        0.2706
     37 C          22.1713   73.0906    0.8532 C.3     1  UNL1        0.1830
     38 H          21.8154   68.7009    0.0646 H       1  UNL1        0.2105
     39 H          22.1135   69.1968   -1.8252 H       1  UNL1        0.2106
     40 H          21.2837   70.6422    2.8012 H       1  UNL1        0.2106
     41 O          23.2744   73.3298    2.9093 O.co2   1  UNL1       -0.5466
     42 O          23.0901   75.1911    1.6051 O.co2   1  UNL1       -0.5466
     43 C          22.8829   74.0026    1.7988 C.2     1  UNL1        0.0799
@<TRIPOS>UNITY_ATOM_ATTR
2 1
charge -1
26 1
charge -1
41 1
charge -1
@<TRIPOS>BOND
     1     1     4    1
     2     1    24    1
     3     1     2    1
     4     1     3    2
     5    25    28    1
     6    25    24    1
     7    25    26    1
     8    25    27    2
     9     6    11    1
    10     6    12    1
    11    29    36    1
    12    29    37    1
    13     7     9    1
    14     7    13    1
    15     8    10    1
    16     8    14    1
    17     4     5    1
    18    28    36    1
    19    30    33    1
    20    30    38    1
    21    31    34    1
    22    31    39    1
    23    32    35    1
    24    32    40    1
    25    41    43   ar
    26    15    19    2
    27    42    43   ar
    28    16    22    2
    29    17    12    1
    30    17    19   ar
    31    17    20   ar
    32    18    19   ar
    33    18    22   ar
    34    18    23    1
    35     9    10    1
    36     9    11    1
    37    10    12    1
    38    11     5    1
    39    33    34    1
    40    33    35    1
    41    34    36    1
    42    35    37    1
    43    37    43    1
    44    20    21   ar
    45    21    22   ar
@<TRIPOS>MOLECULE
*****
 43 45 0 0 0
SMALL
GASTEIGER

@<TRIPOS>ATOM
      1 P          22.1090   71.1140   -2.9884 P.3     1  UNL1        0.2189
      2 O          21.1465   70.0609   -2.2246 O.co2   1  UNL1       -0.4371
      3 O          23.4990   70.6190   -3.2617 O.2     1  UNL1       -0.5170
      4 O          22.0050   72.4567   -2.0915 O.3     1  UNL1       -0.3112
      5 C          22.1829   72.3496   -0.6910 C.3     1  UNL1        0.1811
      6 O          21.1091   72.6930    1.4319 O.3     1  UNL1       -0.3308
      7 O          19.0750   74.3069   -0.0678 O.3     1  UNL1       -0.3794
      8 O          20.6627   76.2285    1.0381 O.3     1  UNL1       -0.3779
      9 C          20.4817   74.1976   -0.2866 C.3     1  UNL1        0.1713
     10 C          21.2387   74.9659    0.7759 C.3     1  UNL1        0.1895
     11 C          20.8923   72.7608    0.0059 C.3     1  UNL1        0.1764
     12 C          21.1534   74.0257    1.9661 C.3     1  UNL1        0.2383
     13 H          18.7892   75.2165   -0.2484 H       1  UNL1        0.2105
     14 H          20.7424   76.7900    0.2506 H       1  UNL1        0.2106
     15 O          21.1424   73.3143    4.6993 O.2     1  UNL1       -0.2464
     16 O          25.5627   74.5131    5.2169 O.2     1  UNL1       -0.2670
     17 N          22.2876   74.1416    2.8384 N.ar    1  UNL1       -0.2551
     18 N          23.3437   73.9130    4.9547 N.ar    1  UNL1       -0.2743
     19 C          22.1765   73.7568    4.1955 C.ar    1  UNL1        0.3323
     20 C          23.4926   74.6300    2.3482 C.ar    1  UNL1        0.0869
     21 C          24.5966   74.7730    3.0840 C.ar    1  UNL1        0.0795
     22 C          24.5650   74.3946    4.5120 C.ar    1  UNL1        0.2626
     23 H          23.2903   73.6536    5.9030 H       1  UNL1        0.1734
     24 O          21.2572   71.4924   -4.3091 O.3     1  UNL1       -0.2703
     25 P          21.3537   72.7606   -5.3071 P.3     1  UNL1        0.2208
     26 O          22.9475   72.9364   -5.5287 O.co2   1  UNL1       -0.4371
     27 O          20.6594   73.9934   -4.8052 O.2     1  UNL1       -0.5170
     28 O          20.8042   72.2114   -6.7210 O.3     1  UNL1       -0.2858
     29 O          18.4595   72.1437   -6.3939 O.3     1  UNL1       -0.3226
     30 O          18.7719   71.2770  -10.4212 O.3     1  UNL1       -0.3794
     31 O          20.6218   70.0825   -8.5015 O.3     1  UNL1       -0.3775
     32 O          17.9062   73.9149   -9.5592 O.3     1  UNL1       -0.3792
     33 C          19.1493   71.8851   -9.1860 C.3     1  UNL1        0.1718
     34 C          19.4441   70.7997   -8.1504 C.3     1  UNL1        0.1968
     35 C          17.9885   72.7658   -8.7183 C.3     1  UNL1        0.1723
     36 C          19.6270   71.4066   -6.7586 C.3     1  UNL1        0.2706
     37 C          18.1857   73.2287   -7.2777 C.3     1  UNL1        0.1830
     38 H          19.4945   70.7123  -10.7379 H       1  UNL1        0.2105
     39 H          20.5128   69.6949   -9.3837 H       1  UNL1        0.2106
     40 H          17.7807   73.6341  -10.4791 H       1  UNL1        0.2106
     41 O          17.1753   74.9157   -5.9992 O.co2   1  UNL1       -0.5466
     42 O          15.8046   73.3331   -6.9024 O.co2   1  UNL1       -0.5466
     43 C          16.9201   73.7996   -6.7259 C.2     1  UNL1        0.0799
@<TRIPOS>UNITY_ATOM_ATTR
2 1
charge -1
26 1
charge -1
41 1
charge -1
@<TRIPOS>BOND
     1     1     4    1
     2     1    24    1
     3     1     2    1
     4     1     3    2
     5    25    28    1
     6    25    24    1
     7    25    26    1
     8    25    27    2
     9     6    11    1
    10     6    12    1
    11    29    36    1
    12    29    37    1
    13     7     9    1
    14     7    13    1
    15     8    10    1
    16     8    14    1
    17     4     5    1
    18    28    36    1
    19    30    33    1
    20    30    38    1
    21    31    34    1
    22    31    39    1
    23    32    35    1
    24    32    40    1
    25    41    43   ar
    26    15    19    2
    27    42    43   ar
    28    16    22    2
    29    17    12    1
    30    17    19   ar
    31    17    20   ar
    32    18    19   ar
    33    18    22   ar
    34    18    23    1
    35     9    10    1
    36     9    11    1
    37    10    12    1
    38    11     5    1
    39    33    34    1
    40    33    35    1
    41    34    36    1
    42    35    37    1
    43    37    43    1
    44    20    21   ar
    45    21    22   ar
@<TRIPOS>MOLECULE
*****
 43 45 0 0 0
SMALL
GASTEIGER

@<TRIPOS>ATOM
      1 P          16.1390   73.9235   -4.2091 P.3     1  UNL1        0.2189
      2 O          15.0379   72.9369   -4.8672 O.co2   1  UNL1       -0.4371
      3 O          15.6049   74.8662   -3.1709 O.2     1  UNL1       -0.5170
      4 O          16.8529   74.6154   -5.4857 O.3     1  UNL1       -0.3112
      5 C          16.5423   74.1307   -6.7791 C.3     1  UNL1        0.1811
      6 O          18.7265   73.1316   -6.6851 O.3     1  UNL1       -0.3308
      7 O          18.7340   73.3121   -9.6782 O.3     1  UNL1       -0.3794
      8 O          18.1135   70.6930   -9.2408 O.3     1  UNL1       -0.3779
      9 C          17.6487   73.0371   -8.7922 C.3     1  UNL1        0.1713
     10 C          17.7629   71.6303   -8.2443 C.3     1  UNL1        0.1895
     11 C          17.8382   73.8829   -7.5405 C.3     1  UNL1        0.1764
     12 C          18.8415   71.7905   -7.1866 C.3     1  UNL1        0.2383
     13 H          18.6348   72.7830  -10.4856 H       1  UNL1        0.2105
     14 H          17.3950   70.6271   -9.8898 H       1  UNL1        0.2106
     15 O          16.3995   70.5562   -6.4868 O.2     1  UNL1       -0.2464
     16 O          18.3459   68.2731   -2.9878 O.2     1  UNL1       -0.2670
     17 N          18.6818   70.8693   -6.0972 N.ar    1  UNL1       -0.2551
     18 N          17.3710   69.4210   -4.7441 N.ar    1  UNL1       -0.2743
     19 C          17.4118   70.3055   -5.8300 C.ar    1  UNL1        0.3323
     20 C          19.7748   70.5318   -5.3083 C.ar    1  UNL1        0.0869
     21 C          19.7205   69.6870   -4.2767 C.ar    1  UNL1        0.0795
     22 C          18.4306   69.0549   -3.9300 C.ar    1  UNL1        0.2626
     23 H          16.4971   69.0174   -4.5374 H       1  UNL1        0.1734
     24 O          17.2686   72.8998   -3.6717 O.3     1  UNL1       -0.2703
     25 P          18.2472   72.9779   -2.3873 P.3     1  UNL1        0.2208
     26 O          18.1363   71.4953   -1.7470 O.co2   1  UNL1       -0.4371
     27 O          17.9223   74.0899   -1.4323 O.2     1  UNL1       -0.5170
     28 O          19.7343   73.0427   -3.0091 O.3     1  UNL1       -0.2858
     29 O          21.2088   72.6503   -1.1977 O.3     1  UNL1       -0.3226
     30 O          23.8365   72.9438   -4.3721 O.3     1  UNL1       -0.3794
     31 O          21.5817   74.7869   -4.1409 O.3     1  UNL1       -0.3775
     32 O          23.2005   70.3429   -3.2400 O.3     1  UNL1       -0.3792
     33 C          22.6039   72.6261   -3.7258 C.3     1  UNL1        0.1718
     34 C          22.0037   73.8936   -3.1169 C.3     1  UNL1        0.1968
     35 C          22.8952   71.5964   -2.6318 C.3     1  UNL1        0.1723
     36 C          20.8080   73.5586   -2.2243 C.3     1  UNL1        0.2706
     37 C          21.6951   71.4108   -1.7077 C.3     1  UNL1        0.1830
     38 H          23.6762   73.5968   -5.0715 H       1  UNL1        0.2105
     39 H          22.3355   75.0035   -4.7113 H       1  UNL1        0.2106
     40 H          23.9625   70.4473   -3.8309 H       1  UNL1        0.2106
     41 O          21.2740   70.9994    0.5627 O.co2   1  UNL1       -0.5466
     42 O          23.0109   69.8736   -0.3936 O.co2   1  UNL1       -0.5466
     43 C          22.0875   70.6700   -0.4710 C.2     1  UNL1        0.0799
@<TRIPOS>UNITY_ATOM_ATTR
2 1
charge -1
26 1
charge -1
41 1
charge -1
@<TRIPOS>BOND
     1     1     4    1
     2     1    24    1
     3     1     2    1
     4     1     3    2
     5    25    28    1
     6    25    24    1
     7    25    26    1
     8    25    27    2
     9     6    11    1
    10     6    12    1
    11    29    36    1
    12    29    37    1
    13     7     9    1
    14     7    13    1
    15     8    10    1
    16     8    14    1
    17     4     5    1
    18    28    36    1
    19    30    33    1
    20    30    38    1
    21    31    34    1
    22    31    39    1
    23    32    35    1
    24    32    40    1
    25    41    43   ar
    26    15    19    2
    27    42    43   ar
    28    16    22    2
    29    17    12    1
    30    17    19   ar
    31    17    20   ar
    32    18    19   ar
    33    18    22   ar
    34    18    23    1
    35     9    10    1
    36     9    11    1
    37    10    12    1
    38    11     5    1
    39    33    34    1
    40    33    35    1
    41    34    36    1
    42    35    37    1
    43    37    43    1
    44    20    21   ar
    45    21    22   ar
@<TRIPOS>MOLECULE
*****
 43 45 0 0 0
SMALL
GASTEIGER

@<TRIPOS>ATOM
      1 P          17.7158   70.6525   -3.2264 P.3     1  UNL1        0.2189
      2 O          16.8421   71.2577   -2.0060 O.co2   1  UNL1       -0.4371
      3 O          18.0571   69.1967   -3.1003 O.2     1  UNL1       -0.5170
      4 O          18.9751   71.6620   -3.3407 O.3     1  UNL1       -0.3112
      5 C          19.6858   71.9926   -2.1617 C.3     1  UNL1        0.1811
      6 O          21.7729   73.0230   -1.5616 O.3     1  UNL1       -0.3308
      7 O          23.0917   70.8287   -3.1228 O.3     1  UNL1       -0.3794
      8 O          23.3897   69.9885   -0.5458 O.3     1  UNL1       -0.3779
      9 C          21.9178   70.7808   -2.3115 C.3     1  UNL1        0.1713
     10 C          22.2920   70.8251   -0.8451 C.3     1  UNL1        0.1895
     11 C          21.1699   72.0951   -2.4894 C.3     1  UNL1        0.1764
     12 C          22.6071   72.2977   -0.6444 C.3     1  UNL1        0.2383
     13 H          23.5862   69.9995   -3.0258 H       1  UNL1        0.2105
     14 H          23.1386   69.0620   -0.6889 H       1  UNL1        0.2106
     15 O          21.8005   70.5990    1.4628 O.2     1  UNL1       -0.2464
     16 O          21.5595   74.1073    4.4424 O.2     1  UNL1       -0.2670
     17 N          22.3270   72.7408    0.6920 N.ar    1  UNL1       -0.2551
     18 N          21.6803   72.3481    2.9445 N.ar    1  UNL1       -0.2743
     19 C          21.9284   71.8060    1.6766 C.ar    1  UNL1        0.3323
     20 C          22.4493   74.0864    1.0165 C.ar    1  UNL1        0.0869
     21 C          22.2094   74.5881    2.2296 C.ar    1  UNL1        0.0795
     22 C          21.7876   73.6788    3.3152 C.ar    1  UNL1        0.2626
     23 H          21.3995   71.7170    3.6461 H       1  UNL1        0.1734
     24 O          16.8311   71.0266   -4.5265 O.3     1  UNL1       -0.2703
     25 P          17.1890   70.9827   -6.1024 P.3     1  UNL1        0.2208
     26 O          16.0733   69.9778   -6.7072 O.co2   1  UNL1       -0.4371
     27 O          18.6057   70.5857   -6.4013 O.2     1  UNL1       -0.5170
     28 O          16.7701   72.4381   -6.6580 O.3     1  UNL1       -0.2858
     29 O          15.4207   73.1800   -8.4573 O.3     1  UNL1       -0.3226
     30 O          18.5022   75.9309   -8.5276 O.3     1  UNL1       -0.3794
     31 O          19.0579   73.0954   -8.0967 O.3     1  UNL1       -0.3775
     32 O          15.9043   76.6769   -7.4573 O.3     1  UNL1       -0.3792
     33 C          17.5854   75.0161   -7.9271 C.3     1  UNL1        0.1718
     34 C          17.8009   73.6191   -8.5096 C.3     1  UNL1        0.1968
     35 C          16.1661   75.5043   -8.2260 C.3     1  UNL1        0.1723
     36 C          16.6929   72.6637   -8.0643 C.3     1  UNL1        0.2706
     37 C          15.1264   74.4456   -7.8701 C.3     1  UNL1        0.1830
     38 H          19.4110   75.6409   -8.3508 H       1  UNL1        0.2105
     39 H          19.7656   73.6968   -8.3757 H       1  UNL1        0.2106
     40 H          16.5593   77.3586   -7.6743 H       1  UNL1        0.2106
     41 O          13.9401   75.6627   -9.4866 O.co2   1  UNL1       -0.5466
     42 O          12.7247   74.3443   -8.0781 O.co2   1  UNL1       -0.5466
     43 C          13.7971   74.7882   -8.4601 C.2     1  UNL1        0.0799
@<TRIPOS>UNITY_ATOM_ATTR
2 1
charge -1
26 1
charge -1
41 1
charge -1
@<TRIPOS>BOND
     1     1     4    1
     2     1    24    1
     3     1     2    1
     4     1     3    2
     5    25    28    1
     6    25    24    1
     7    25    26    1
     8    25    27    2
     9     6    11    1
    10     6    12    1
    11    29    36    1
    12    29    37    1
    13     7     9    1
    14     7    13    1
    15     8    10    1
    16     8    14    1
    17     4     5    1
    18    28    36    1
    19    30    33    1
    20    30    38    1
    21    31    34    1
    22    31    39    1
    23    32    35    1
    24    32    40    1
    25    41    43   ar
    26    15    19    2
    27    42    43   ar
    28    16    22    2
    29    17    12    1
    30    17    19   ar
    31    17    20   ar
    32    18    19   ar
    33    18    22   ar
    34    18    23    1
    35     9    10    1
    36     9    11    1
    37    10    12    1
    38    11     5    1
    39    33    34    1
    40    33    35    1
    41    34    36    1
    42    35    37    1
    43    37    43    1
    44    20    21   ar
    45    21    22   ar
@<TRIPOS>MOLECULE
*****
 43 45 0 0 0
SMALL
GASTEIGER

@<TRIPOS>ATOM
      1 P          18.9707   70.3472   -3.2125 P.3     1  UNL1        0.2189
      2 O          18.5557   69.0009   -2.4162 O.co2   1  UNL1       -0.4371
      3 O          18.5904   71.6289   -2.5311 O.2     1  UNL1       -0.5170
      4 O          18.3546   70.1287   -4.6926 O.3     1  UNL1       -0.3112
      5 C          19.0032   70.7409   -5.7921 C.3     1  UNL1        0.1811
      6 O          18.6073   72.9427   -6.6712 O.3     1  UNL1       -0.3308
      7 O          16.4138   71.6983   -8.2934 O.3     1  UNL1       -0.3794
      8 O          18.4376   71.9300  -10.1063 O.3     1  UNL1       -0.3779
      9 C          17.6840   71.1590   -7.9269 C.3     1  UNL1        0.1713
     10 C          18.7832   71.8060   -8.7426 C.3     1  UNL1        0.1895
     11 C          18.0088   71.6375   -6.5184 C.3     1  UNL1        0.1764
     12 C          18.9370   73.1513   -8.0536 C.3     1  UNL1        0.2383
     13 H          16.1847   71.4063   -9.1900 H       1  UNL1        0.2105
     14 H          18.3517   71.0469  -10.4996 H       1  UNL1        0.2106
     15 O          21.2525   71.5412   -8.2050 O.2     1  UNL1       -0.2464
     16 O          24.0212   75.2214   -8.3910 O.2     1  UNL1       -0.2670
     17 N          20.2755   73.6626   -8.1424 N.ar    1  UNL1       -0.2551
     18 N          22.6293   73.3757   -8.2964 N.ar    1  UNL1       -0.2743
     19 C          21.3695   72.7680   -8.2136 C.ar    1  UNL1        0.3323
     20 C          20.4941   75.0347   -8.1600 C.ar    1  UNL1        0.0869
     21 C          21.7007   75.5991   -8.2394 C.ar    1  UNL1        0.0795
     22 C          22.8968   74.7349   -8.3165 C.ar    1  UNL1        0.2626
     23 H          23.4065   72.7732   -8.3450 H       1  UNL1        0.1734
     24 O          20.5583   70.1549   -3.4477 O.3     1  UNL1       -0.2703
     25 P          21.8156   71.0680   -3.0018 P.3     1  UNL1        0.2208
     26 O          21.5200   72.4843   -3.7278 O.co2   1  UNL1       -0.4371
     27 O          23.1550   70.4735   -3.3283 O.2     1  UNL1       -0.5170
     28 O          21.5758   71.3568   -1.4329 O.3     1  UNL1       -0.2858
     29 O          23.2914   72.7086   -0.5173 O.3     1  UNL1       -0.3226
     30 O          21.0931   71.7475    2.8461 O.3     1  UNL1       -0.3794
     31 O          21.6562   69.7230    0.8166 O.3     1  UNL1       -0.3775
     32 O          20.8770   74.3970    1.6695 O.3     1  UNL1       -0.3792
     33 C          21.3010   72.0343    1.4631 C.3     1  UNL1        0.1718
     34 C          22.2649   71.0082    0.8669 C.3     1  UNL1        0.1968
     35 C          21.8896   73.4428    1.3555 C.3     1  UNL1        0.1723
     36 C          22.6907   71.4133   -0.5449 C.3     1  UNL1        0.2706
     37 C          22.4057   73.7248   -0.0526 C.3     1  UNL1        0.1830
     38 H          20.7195   70.8570    2.9392 H       1  UNL1        0.2105
     39 H          21.3833   69.4598    1.7091 H       1  UNL1        0.2106
     40 H          20.5399   74.2285    2.5633 H       1  UNL1        0.2106
     41 O          22.4964   76.0683   -0.0841 O.co2   1  UNL1       -0.5466
     42 O          24.4838   74.9506   -0.0653 O.co2   1  UNL1       -0.5466
     43 C          23.2619   74.9491   -0.0684 C.2     1  UNL1        0.0799
@<TRIPOS>UNITY_ATOM_ATTR
2 1
charge -1
26 1
charge -1
41 1
charge -1
@<TRIPOS>BOND
     1     1     4    1
     2     1    24    1
     3     1     2    1
     4     1     3    2
     5    25    28    1
     6    25    24    1
     7    25    26    1
     8    25    27    2
     9     6    11    1
    10     6    12    1
    11    29    36    1
    12    29    37    1
    13     7     9    1
    14     7    13    1
    15     8    10    1
    16     8    14    1
    17     4     5    1
    18    28    36    1
    19    30    33    1
    20    30    38    1
    21    31    34    1
    22    31    39    1
    23    32    35    1
    24    32    40    1
    25    41    43   ar
    26    15    19    2
    27    42    43   ar
    28    16    22    2
    29    17    12    1
    30    17    19   ar
    31    17    20   ar
    32    18    19   ar
    33    18    22   ar
    34    18    23    1
    35     9    10    1
    36     9    11    1
    37    10    12    1
    38    11     5    1
    39    33    34    1
    40    33    35    1
    41    34    36    1
    42    35    37    1
    43    37    43    1
    44    20    21   ar
    45    21    22   ar
@<TRIPOS>MOLECULE
*****
 43 45 0 0 0
SMALL
GASTEIGER

@<TRIPOS>ATOM
      1 P          22.6764   73.2565   -4.5922 P.3     1  UNL1        0.2189
      2 O          21.9424   74.6907   -4.7444 O.co2   1  UNL1       -0.4371
      3 O          24.0543   73.3096   -4.0003 O.2     1  UNL1       -0.5170
      4 O          22.5712   72.6074   -6.0706 O.3     1  UNL1       -0.3112
      5 C          21.5059   73.0102   -6.9116 C.3     1  UNL1        0.1811
      6 O          19.2430   72.2015   -6.8579 O.3     1  UNL1       -0.3308
      7 O          20.1817   70.0054   -8.6711 O.3     1  UNL1       -0.3794
      8 O          18.9522   71.7199  -10.3988 O.3     1  UNL1       -0.3779
      9 C          20.5825   71.3751   -8.6281 C.3     1  UNL1        0.1713
     10 C          19.4994   72.2568   -9.2126 C.3     1  UNL1        0.1895
     11 C          20.5986   71.8142   -7.1703 C.3     1  UNL1        0.1764
     12 C          18.4918   72.3133   -8.0771 C.3     1  UNL1        0.2383
     13 H          20.1639   69.7021   -9.5927 H       1  UNL1        0.2105
     14 H          19.6325   71.7054  -11.0909 H       1  UNL1        0.2106
     15 O          15.6728   72.4844   -8.0975 O.2     1  UNL1       -0.2464
     16 O          15.7696   77.0917   -8.0089 O.2     1  UNL1       -0.2670
     17 N          17.7542   73.5449   -8.0598 N.ar    1  UNL1       -0.2551
     18 N          15.7237   74.7790   -8.0544 N.ar    1  UNL1       -0.2743
     19 C          16.3396   73.5206   -8.0724 C.ar    1  UNL1        0.3323
     20 C          18.4309   74.7582   -8.0291 C.ar    1  UNL1        0.0869
     21 C          17.8301   75.9496   -8.0122 C.ar    1  UNL1        0.0795
     22 C          16.3538   76.0125   -8.0244 C.ar    1  UNL1        0.2626
     23 H          14.7392   74.7876   -8.0647 H       1  UNL1        0.1734
     24 O          21.6099   72.3918   -3.7390 O.3     1  UNL1       -0.2703
     25 P          21.7261   70.9249   -3.0694 P.3     1  UNL1        0.2208
     26 O          23.2942   70.5625   -3.2426 O.co2   1  UNL1       -0.4371
     27 O          20.7882   69.9067   -3.6505 O.2     1  UNL1       -0.5170
     28 O          21.5397   71.1811   -1.4877 O.3     1  UNL1       -0.2858
     29 O          23.2556   72.5981   -0.6771 O.3     1  UNL1       -0.3226
     30 O          21.2198   71.6712    2.7963 O.3     1  UNL1       -0.3794
     31 O          21.7525   69.6090    0.7969 O.3     1  UNL1       -0.3775
     32 O          20.8886   74.2831    1.5636 O.3     1  UNL1       -0.3792
     33 C          21.3644   71.9269    1.3993 C.3     1  UNL1        0.1718
     34 C          22.3296   70.9096    0.7901 C.3     1  UNL1        0.1968
     35 C          21.9118   73.3462    1.2324 C.3     1  UNL1        0.1723
     36 C          22.6876   71.2881   -0.6477 C.3     1  UNL1        0.2706
     37 C          22.3634   73.6040   -0.2022 C.3     1  UNL1        0.1830
     38 H          20.8732   70.7746    2.9270 H       1  UNL1        0.2105
     39 H          21.5226   69.3625    1.7062 H       1  UNL1        0.2106
     40 H          20.5921   74.1297    2.4743 H       1  UNL1        0.2106
     41 O          22.3919   75.9417   -0.3919 O.co2   1  UNL1       -0.5466
     42 O          24.4076   74.8846   -0.2551 O.co2   1  UNL1       -0.5466
     43 C          23.1866   74.8482   -0.2837 C.2     1  UNL1        0.0799
@<TRIPOS>UNITY_ATOM_ATTR
2 1
charge -1
26 1
charge -1
41 1
charge -1
@<TRIPOS>BOND
     1     1     4    1
     2     1    24    1
     3     1     2    1
     4     1     3    2
     5    25    28    1
     6    25    24    1
     7    25    26    1
     8    25    27    2
     9     6    11    1
    10     6    12    1
    11    29    36    1
    12    29    37    1
    13     7     9    1
    14     7    13    1
    15     8    10    1
    16     8    14    1
    17     4     5    1
    18    28    36    1
    19    30    33    1
    20    30    38    1
    21    31    34    1
    22    31    39    1
    23    32    35    1
    24    32    40    1
    25    41    43   ar
    26    15    19    2
    27    42    43   ar
    28    16    22    2
    29    17    12    1
    30    17    19   ar
    31    17    20   ar
    32    18    19   ar
    33    18    22   ar
    34    18    23    1
    35     9    10    1
    36     9    11    1
    37    10    12    1
    38    11     5    1
    39    33    34    1
    40    33    35    1
    41    34    36    1
    42    35    37    1
    43    37    43    1
    44    20    21   ar
    45    21    22   ar
