@<TRIPOS>MOLECULE
*****
 43 45 0 0 0
SMALL
GASTEIGER

@<TRIPOS>ATOM
      1 P          22.9841   71.6435   -2.6763 P.3     1  UNL1        0.2189
      2 O          23.8041   72.9636   -3.1262 O.co2   1  UNL1       -0.4371
      3 O          23.4878   70.3555   -3.2585 O.2     1  UNL1       -0.5170
      4 O          21.4440   72.0105   -3.0098 O.3     1  UNL1       -0.3112
      5 C          20.6078   70.9982   -3.5425 C.3     1  UNL1        0.1811
      6 O          18.7344   71.9979   -4.6671 O.3     1  UNL1       -0.3308
      7 O          17.0373   70.8053   -2.5019 O.3     1  UNL1       -0.3794
      8 O          16.6618   69.0725   -4.5739 O.3     1  UNL1       -0.3779
      9 C          18.2038   70.2750   -3.1291 C.3     1  UNL1        0.1713
     10 C          17.8763   69.7933   -4.5271 C.3     1  UNL1        0.1895
     11 C          19.1549   71.4325   -3.4062 C.3     1  UNL1        0.1764
     12 C          17.8122   71.0979   -5.3029 C.3     1  UNL1        0.2383
     13 H          16.4149   70.0844   -2.3148 H       1  UNL1        0.2105
     14 H          16.7532   68.2512   -4.0661 H       1  UNL1        0.2106
     15 O          16.0362   70.3616   -7.3721 O.2     1  UNL1       -0.2464
     16 O          19.3789   70.5067  -10.5418 O.2     1  UNL1       -0.2670
     17 N          18.1915   70.9364   -6.6782 N.ar    1  UNL1       -0.2551
     18 N          17.7020   70.4346   -8.9487 N.ar    1  UNL1       -0.2743
     19 C          17.2227   70.5632   -7.6388 C.ar    1  UNL1        0.3323
     20 C          19.5111   71.1477   -7.0626 C.ar    1  UNL1        0.0869
     21 C          19.9523   71.0197   -8.3157 C.ar    1  UNL1        0.0795
     22 C          19.0041   70.6327   -9.3801 C.ar    1  UNL1        0.2626
     23 H          17.0451   70.1751   -9.6349 H       1  UNL1        0.1734
     24 O          23.0339   71.7171   -1.0623 O.3     1  UNL1       -0.2703
     25 P          22.4753   70.7016    0.0644 P.3     1  UNL1        0.2208
     26 O          23.6557   69.6024    0.1912 O.co2   1  UNL1       -0.4371
     27 O          21.1232   70.1256   -0.2422 O.2     1  UNL1       -0.5170
     28 O          22.5487   71.5393    1.4420 O.3     1  UNL1       -0.2858
     29 O          21.4647   72.2825    3.4141 O.3     1  UNL1       -0.3258
     30 O          21.2532   75.7585    1.1952 O.3     1  UNL1       -0.3794
     31 O          23.0698   75.6010    3.4141 O.3     1  UNL1       -0.3794
     32 O          20.8872   73.1950   -0.0986 O.3     1  UNL1       -0.3775
     33 C          21.8446   74.5402    1.6550 C.3     1  UNL1        0.1715
     34 C          22.0426   74.6445    3.1685 C.3     1  UNL1        0.1694
     35 C          20.9175   73.3752    1.3131 C.3     1  UNL1        0.1967
     36 C          22.4221   73.2858    3.7726 C.3     1  UNL1        0.1761
     37 C          21.3566   72.0826    2.0034 C.3     1  UNL1        0.2704
     38 H          21.8371   76.5021    1.4088 H       1  UNL1        0.2105
     39 H          22.8179   76.4543    3.0272 H       1  UNL1        0.2105
     40 H          20.6075   74.0201   -0.5239 H       1  UNL1        0.2106
     41 O          21.1522   73.1866    5.7941 O.3     1  UNL1       -0.3794
     42 C          22.4703   73.3316    5.2982 C.3     1  UNL1        0.1693
     43 H          21.1674   73.2136    6.7640 H       1  UNL1        0.2105
@<TRIPOS>UNITY_ATOM_ATTR
2 1
charge -1
26 1
charge -1
@<TRIPOS>BOND
     1    25    28    1
     2    25    24    1
     3    25    26    1
     4    25    27    2
     5     1     4    1
     6     1    24    1
     7     1     2    1
     8     1     3    2
     9     6    11    1
    10     6    12    1
    11    29    36    1
    12    29    37    1
    13     7     9    1
    14     7    13    1
    15     8    10    1
    16     8    14    1
    17    28    37    1
    18     4     5    1
    19    30    33    1
    20    30    38    1
    21    31    34    1
    22    31    39    1
    23    32    35    1
    24    32    40    1
    25    41    42    1
    26    41    43    1
    27    15    19    2
    28    16    22    2
    29    17    12    1
    30    17    19   ar
    31    17    20   ar
    32    18    19   ar
    33    18    22   ar
    34    18    23    1
    35     9    10    1
    36     9    11    1
    37    10    12    1
    38    11     5    1
    39    33    34    1
    40    33    35    1
    41    34    36    1
    42    35    37    1
    43    36    42    1
    44    20    21   ar
    45    21    22   ar
@<TRIPOS>MOLECULE
*****
 43 45 0 0 0
SMALL
GASTEIGER

@<TRIPOS>ATOM
      1 P          22.9586   71.6846   -2.6737 P.3     1  UNL1        0.2189
      2 O          23.8034   73.0434   -2.9132 O.co2   1  UNL1       -0.4371
      3 O          23.5888   70.4406   -3.2275 O.2     1  UNL1       -0.5170
      4 O          21.4852   72.0383   -3.2412 O.3     1  UNL1       -0.3112
      5 C          20.6350   70.9720   -3.6258 C.3     1  UNL1        0.1811
      6 O          18.7599   71.9761   -4.7437 O.3     1  UNL1       -0.3308
      7 O          17.0710   70.8093   -2.5580 O.3     1  UNL1       -0.3794
      8 O          16.6692   69.0649   -4.6152 O.3     1  UNL1       -0.3779
      9 C          18.2295   70.2672   -3.1900 C.3     1  UNL1        0.1713
     10 C          17.8887   69.7781   -4.5822 C.3     1  UNL1        0.1895
     11 C          19.1859   71.4167   -3.4820 C.3     1  UNL1        0.1764
     12 C          17.8273   71.0777   -5.3665 C.3     1  UNL1        0.2383
     13 H          16.4454   70.0938   -2.3615 H       1  UNL1        0.2105
     14 H          16.7591   68.2465   -4.1024 H       1  UNL1        0.2106
     15 O          16.0182   70.4091   -7.4301 O.2     1  UNL1       -0.2464
     16 O          19.3525   70.4370  -10.6118 O.2     1  UNL1       -0.2670
     17 N          18.1955   70.9044   -6.7434 N.ar    1  UNL1       -0.2551
     18 N          17.6799   70.4237   -9.0127 N.ar    1  UNL1       -0.2743
     19 C          17.2104   70.5678   -7.7009 C.ar    1  UNL1        0.3323
     20 C          19.5205   71.0682   -7.1324 C.ar    1  UNL1        0.0869
     21 C          19.9522   70.9259   -8.3872 C.ar    1  UNL1        0.0795
     22 C          18.9867   70.5749   -9.4486 C.ar    1  UNL1        0.2626
     23 H          17.0115   70.1890   -9.6967 H       1  UNL1        0.1734
     24 O          22.7377   71.6714   -1.0725 O.3     1  UNL1       -0.2703
     25 P          22.1887   70.5144   -0.0862 P.3     1  UNL1        0.2208
     26 O          23.5438   69.8421    0.4876 O.co2   1  UNL1       -0.4371
     27 O          21.2453   69.5460   -0.7388 O.2     1  UNL1       -0.5170
     28 O          21.5651   71.3114    1.1712 O.3     1  UNL1       -0.2858
     29 O          22.0220   73.6334    1.0438 O.3     1  UNL1       -0.3258
     30 O          20.4905   73.4715    4.8752 O.3     1  UNL1       -0.3794
     31 O          18.9288   74.6496    2.7725 O.3     1  UNL1       -0.3794
     32 O          22.1882   71.3359    3.9073 O.3     1  UNL1       -0.3775
     33 C          20.5991   73.0992    3.4986 C.3     1  UNL1        0.1715
     34 C          20.3125   74.3351    2.6435 C.3     1  UNL1        0.1694
     35 C          22.0096   72.5766    3.2326 C.3     1  UNL1        0.1967
     36 C          20.6688   74.0853    1.1718 C.3     1  UNL1        0.1761
     37 C          22.2771   72.4094    1.7357 C.3     1  UNL1        0.2704
     38 H          19.5971   73.8037    5.0508 H       1  UNL1        0.2105
     39 H          18.7169   74.8045    3.7065 H       1  UNL1        0.2105
     40 H          22.0163   71.4551    4.8539 H       1  UNL1        0.2106
     41 O          21.8172   75.9539    0.2241 O.3     1  UNL1       -0.3794
     42 C          20.5400   75.3523    0.3292 C.3     1  UNL1        0.1693
     43 H          21.7507   76.7614   -0.3099 H       1  UNL1        0.2105
@<TRIPOS>UNITY_ATOM_ATTR
2 1
charge -1
26 1
charge -1
@<TRIPOS>BOND
     1    25    28    1
     2    25    24    1
     3    25    26    1
     4    25    27    2
     5     1     4    1
     6     1    24    1
     7     1     2    1
     8     1     3    2
     9     6    11    1
    10     6    12    1
    11    29    36    1
    12    29    37    1
    13     7     9    1
    14     7    13    1
    15     8    10    1
    16     8    14    1
    17    28    37    1
    18     4     5    1
    19    30    33    1
    20    30    38    1
    21    31    34    1
    22    31    39    1
    23    32    35    1
    24    32    40    1
    25    41    42    1
    26    41    43    1
    27    15    19    2
    28    16    22    2
    29    17    12    1
    30    17    19   ar
    31    17    20   ar
    32    18    19   ar
    33    18    22   ar
    34    18    23    1
    35     9    10    1
    36     9    11    1
    37    10    12    1
    38    11     5    1
    39    33    34    1
    40    33    35    1
    41    34    36    1
    42    35    37    1
    43    36    42    1
    44    20    21   ar
    45    21    22   ar
@<TRIPOS>MOLECULE
*****
 43 45 0 0 0
SMALL
GASTEIGER

@<TRIPOS>ATOM
      1 P          21.6279   70.6615   -1.0759 P.3     1  UNL1        0.2189
      2 O          23.2050   70.6692   -1.4363 O.co2   1  UNL1       -0.4371
      3 O          21.2775   69.9941    0.2215 O.2     1  UNL1       -0.5170
      4 O          20.9306   70.0395   -2.3968 O.3     1  UNL1       -0.3112
      5 C          20.6460   70.9048   -3.4822 C.3     1  UNL1        0.1811
      6 O          18.8250   71.9849   -4.6184 O.3     1  UNL1       -0.3308
      7 O          17.0678   70.8883   -2.4504 O.3     1  UNL1       -0.3794
      8 O          16.6156   69.1618   -4.5123 O.3     1  UNL1       -0.3779
      9 C          18.2094   70.2991   -3.0709 C.3     1  UNL1        0.1713
     10 C          17.8629   69.8244   -4.4666 C.3     1  UNL1        0.1895
     11 C          19.2151   71.4085   -3.3528 C.3     1  UNL1        0.1764
     12 C          17.8627   71.1255   -5.2510 C.3     1  UNL1        0.2383
     13 H          16.4115   70.1990   -2.2604 H       1  UNL1        0.2105
     14 H          16.6667   68.3404   -3.9989 H       1  UNL1        0.2106
     15 O          16.0702   70.3964   -7.3085 O.2     1  UNL1       -0.2464
     16 O          19.4119   70.4299  -10.4822 O.2     1  UNL1       -0.2670
     17 N          18.2373   70.9372   -6.6242 N.ar    1  UNL1       -0.2551
     18 N          17.7355   70.4139   -8.8871 N.ar    1  UNL1       -0.2743
     19 C          17.2603   70.5703   -7.5788 C.ar    1  UNL1        0.3323
     20 C          19.5605   71.1166   -7.0124 C.ar    1  UNL1        0.0869
     21 C          19.9978   70.9623   -8.2639 C.ar    1  UNL1        0.0795
     22 C          19.0409   70.5796   -9.3221 C.ar    1  UNL1        0.2626
     23 H          17.0728   70.1581   -9.5691 H       1  UNL1        0.1734
     24 O          21.2289   72.2259   -1.1569 O.3     1  UNL1       -0.2703
     25 P          21.9659   73.5410   -0.5736 P.3     1  UNL1        0.2208
     26 O          21.0576   74.7558   -1.1366 O.co2   1  UNL1       -0.4371
     27 O          23.4211   73.6395   -0.9292 O.2     1  UNL1       -0.5170
     28 O          21.6655   73.5082    1.0118 O.3     1  UNL1       -0.2858
     29 O          23.5578   74.2619    2.2233 O.3     1  UNL1       -0.3258
     30 O          21.2235   72.9775    5.3780 O.3     1  UNL1       -0.3794
     31 O          21.5924   75.7919    4.9408 O.3     1  UNL1       -0.3794
     32 O          21.2603   71.4755    2.9037 O.3     1  UNL1       -0.3775
     33 C          21.4757   73.5576    4.0953 C.3     1  UNL1        0.1715
     34 C          22.3656   74.7866    4.2913 C.3     1  UNL1        0.1694
     35 C          22.1712   72.5260    3.2089 C.3     1  UNL1        0.1967
     36 C          22.8970   75.3056    2.9484 C.3     1  UNL1        0.1761
     37 C          22.7049   73.1560    1.9211 C.3     1  UNL1        0.2704
     38 H          20.7816   73.6272    5.9455 H       1  UNL1        0.2105
     39 H          21.2625   75.4513    5.7872 H       1  UNL1        0.2105
     40 H          20.9299   71.0847    3.7271 H       1  UNL1        0.2106
     41 O          24.9822   75.9492    3.9215 O.3     1  UNL1       -0.3794
     42 C          23.9112   76.4325    3.1318 C.3     1  UNL1        0.1693
     43 H          25.6356   76.6557    4.0462 H       1  UNL1        0.2105
@<TRIPOS>UNITY_ATOM_ATTR
2 1
charge -1
26 1
charge -1
@<TRIPOS>BOND
     1    25    28    1
     2    25    24    1
     3    25    26    1
     4    25    27    2
     5     1     4    1
     6     1    24    1
     7     1     2    1
     8     1     3    2
     9     6    11    1
    10     6    12    1
    11    29    36    1
    12    29    37    1
    13     7     9    1
    14     7    13    1
    15     8    10    1
    16     8    14    1
    17    28    37    1
    18     4     5    1
    19    30    33    1
    20    30    38    1
    21    31    34    1
    22    31    39    1
    23    32    35    1
    24    32    40    1
    25    41    42    1
    26    41    43    1
    27    15    19    2
    28    16    22    2
    29    17    12    1
    30    17    19   ar
    31    17    20   ar
    32    18    19   ar
    33    18    22   ar
    34    18    23    1
    35     9    10    1
    36     9    11    1
    37    10    12    1
    38    11     5    1
    39    33    34    1
    40    33    35    1
    41    34    36    1
    42    35    37    1
    43    36    42    1
    44    20    21   ar
    45    21    22   ar
@<TRIPOS>MOLECULE
*****
 43 45 0 0 0
SMALL
GASTEIGER

@<TRIPOS>ATOM
      1 P          22.9388   71.9895   -3.0705 P.3     1  UNL1        0.2189
      2 O          23.7047   70.5740   -3.2350 O.co2   1  UNL1       -0.4371
      3 O          22.7415   72.4425   -1.6538 O.2     1  UNL1       -0.5170
      4 O          21.5892   71.8047   -3.9436 O.3     1  UNL1       -0.3112
      5 C          20.7178   70.7344   -3.6228 C.3     1  UNL1        0.1811
      6 O          18.9055   71.8864   -4.7010 O.3     1  UNL1       -0.3308
      7 O          17.1643   70.8080   -2.5110 O.3     1  UNL1       -0.3794
      8 O          16.6149   69.1289   -4.5884 O.3     1  UNL1       -0.3779
      9 C          18.2736   70.1951   -3.1660 C.3     1  UNL1        0.1713
     10 C          17.8823   69.7533   -4.5607 C.3     1  UNL1        0.1895
     11 C          19.3058   71.2783   -3.4534 C.3     1  UNL1        0.1764
     12 C          17.9040   71.0662   -5.3249 C.3     1  UNL1        0.2383
     13 H          16.4918   70.1356   -2.3169 H       1  UNL1        0.2105
     14 H          16.6525   68.2983   -4.0890 H       1  UNL1        0.2106
     15 O          16.0374   70.4771   -7.3612 O.2     1  UNL1       -0.2464
     16 O          19.3163   70.4058  -10.5992 O.2     1  UNL1       -0.2670
     17 N          18.2424   70.8888   -6.7089 N.ar    1  UNL1       -0.2551
     18 N          17.6715   70.4423   -8.9718 N.ar    1  UNL1       -0.2743
     19 C          17.2297   70.5945   -7.6514 C.ar    1  UNL1        0.3323
     20 C          19.5658   71.0073   -7.1194 C.ar    1  UNL1        0.0869
     21 C          19.9708   70.8579   -8.3823 C.ar    1  UNL1        0.0795
     22 C          18.9754   70.5491   -9.4291 C.ar    1  UNL1        0.2626
     23 H          16.9836   70.2365   -9.6458 H       1  UNL1        0.1734
     24 O          23.8253   72.9901   -3.9794 O.3     1  UNL1       -0.2703
     25 P          23.9031   74.6043   -4.0144 P.3     1  UNL1        0.2208
     26 O          25.4893   74.9018   -3.9005 O.co2   1  UNL1       -0.4371
     27 O          23.0689   75.2834   -2.9672 O.2     1  UNL1       -0.5170
     28 O          23.5224   74.9988   -5.5325 O.3     1  UNL1       -0.2858
     29 O          21.6104   76.0838   -6.4177 O.3     1  UNL1       -0.3258
     30 O          22.2791   73.3531   -9.4422 O.3     1  UNL1       -0.3794
     31 O          22.8622   76.1302   -9.8847 O.3     1  UNL1       -0.3794
     32 O          22.6858   72.5796   -6.6825 O.3     1  UNL1       -0.3775
     33 C          22.6497   74.2641   -8.4038 C.3     1  UNL1        0.1715
     34 C          22.1163   75.6507   -8.7693 C.3     1  UNL1        0.1694
     35 C          22.0476   73.7874   -7.0833 C.3     1  UNL1        0.1967
     36 C          22.2397   76.6211   -7.5869 C.3     1  UNL1        0.1761
     37 C          22.1803   74.8461   -5.9872 C.3     1  UNL1        0.2704
     38 H          22.6586   73.6498  -10.2833 H       1  UNL1        0.2105
     39 H          22.7763   75.5082  -10.6242 H       1  UNL1        0.2105
     40 H          22.5945   71.9174   -7.3847 H       1  UNL1        0.2106
     41 O          21.9179   78.8696   -6.8455 O.3     1  UNL1       -0.3794
     42 C          21.5713   77.9633   -7.8764 C.3     1  UNL1        0.1693
     43 H          21.4997   79.7284   -7.0166 H       1  UNL1        0.2105
@<TRIPOS>UNITY_ATOM_ATTR
2 1
charge -1
26 1
charge -1
@<TRIPOS>BOND
     1    25    28    1
     2    25    24    1
     3    25    26    1
     4    25    27    2
     5     1     4    1
     6     1    24    1
     7     1     2    1
     8     1     3    2
     9     6    11    1
    10     6    12    1
    11    29    36    1
    12    29    37    1
    13     7     9    1
    14     7    13    1
    15     8    10    1
    16     8    14    1
    17    28    37    1
    18     4     5    1
    19    30    33    1
    20    30    38    1
    21    31    34    1
    22    31    39    1
    23    32    35    1
    24    32    40    1
    25    41    42    1
    26    41    43    1
    27    15    19    2
    28    16    22    2
    29    17    12    1
    30    17    19   ar
    31    17    20   ar
    32    18    19   ar
    33    18    22   ar
    34    18    23    1
    35     9    10    1
    36     9    11    1
    37    10    12    1
    38    11     5    1
    39    33    34    1
    40    33    35    1
    41    34    36    1
    42    35    37    1
    43    36    42    1
    44    20    21   ar
    45    21    22   ar
@<TRIPOS>MOLECULE
*****
 43 45 0 0 0
SMALL
GASTEIGER

@<TRIPOS>ATOM
      1 P          22.8737   72.4458   -3.3705 P.3     1  UNL1        0.2189
      2 O          23.8386   73.0147   -4.5378 O.co2   1  UNL1       -0.4371
      3 O          23.5007   71.4185   -2.4744 O.2     1  UNL1       -0.5170
      4 O          21.5450   71.9705   -4.1621 O.3     1  UNL1       -0.3112
      5 C          20.7784   70.9092   -3.6201 C.3     1  UNL1        0.1811
      6 O          18.8953   71.9541   -4.6861 O.3     1  UNL1       -0.3308
      7 O          17.2383   70.8009   -2.4690 O.3     1  UNL1       -0.3794
      8 O          16.7574   69.0788   -4.5280 O.3     1  UNL1       -0.3779
      9 C          18.3718   70.2433   -3.1320 C.3     1  UNL1        0.1713
     10 C          17.9896   69.7704   -4.5191 C.3     1  UNL1        0.1895
     11 C          19.3412   71.3781   -3.4388 C.3     1  UNL1        0.1764
     12 C          17.9326   71.0766   -5.2928 C.3     1  UNL1        0.2383
     13 H          16.6051   70.0950   -2.2625 H       1  UNL1        0.2105
     14 H          16.8449   68.2553   -4.0231 H       1  UNL1        0.2106
     15 O          16.0674   70.4324   -7.3136 O.2     1  UNL1       -0.2464
     16 O          19.3215   70.4489  -10.5773 O.2     1  UNL1       -0.2670
     17 N          18.2650   70.9069   -6.6792 N.ar    1  UNL1       -0.2551
     18 N          17.6892   70.4413   -8.9371 N.ar    1  UNL1       -0.2743
     19 C          17.2536   70.5829   -7.6133 C.ar    1  UNL1        0.3323
     20 C          19.5812   71.0621   -7.1003 C.ar    1  UNL1        0.0869
     21 C          19.9804   70.9223   -8.3661 C.ar    1  UNL1        0.0795
     22 C          18.9860   70.5842   -9.4047 C.ar    1  UNL1        0.2626
     23 H          17.0021   70.2153   -9.6053 H       1  UNL1        0.1734
     24 O          22.3857   73.7891   -2.6154 O.3     1  UNL1       -0.2703
     25 P          23.1437   74.7465   -1.5563 P.3     1  UNL1        0.2208
     26 O          22.4862   76.1988   -1.8322 O.co2   1  UNL1       -0.4371
     27 O          24.6411   74.7149   -1.6602 O.2     1  UNL1       -0.5170
     28 O          22.5637   74.3032   -0.1169 O.3     1  UNL1       -0.2858
     29 O          21.6658   72.1202    0.0947 O.3     1  UNL1       -0.3258
     30 O          19.9487   73.8650    3.4201 O.3     1  UNL1       -0.3794
     31 O          22.0817   71.9712    3.7545 O.3     1  UNL1       -0.3794
     32 O          20.2096   75.3797    0.9671 O.3     1  UNL1       -0.3775
     33 C          20.9747   73.6419    2.4490 C.3     1  UNL1        0.1715
     34 C          21.3936   72.1722    2.5231 C.3     1  UNL1        0.1694
     35 C          20.4301   73.9765    1.0616 C.3     1  UNL1        0.1967
     36 C          22.2939   71.7926    1.3397 C.3     1  UNL1        0.1761
     37 C          21.3796   73.5132   -0.0447 C.3     1  UNL1        0.2704
     38 H          20.2882   73.6549    4.3034 H       1  UNL1        0.2105
     39 H          21.5025   72.2151    4.4935 H       1  UNL1        0.2105
     40 H          19.6068   75.6604    1.6726 H       1  UNL1        0.2106
     41 O          21.5910   69.6520    0.5442 O.3     1  UNL1       -0.3794
     42 C          22.5948   70.2957    1.3072 C.3     1  UNL1        0.1693
     43 H          21.7697   68.6987    0.5145 H       1  UNL1        0.2105
@<TRIPOS>UNITY_ATOM_ATTR
2 1
charge -1
26 1
charge -1
@<TRIPOS>BOND
     1    25    28    1
     2    25    24    1
     3    25    26    1
     4    25    27    2
     5     1     4    1
     6     1    24    1
     7     1     2    1
     8     1     3    2
     9     6    11    1
    10     6    12    1
    11    29    36    1
    12    29    37    1
    13     7     9    1
    14     7    13    1
    15     8    10    1
    16     8    14    1
    17    28    37    1
    18     4     5    1
    19    30    33    1
    20    30    38    1
    21    31    34    1
    22    31    39    1
    23    32    35    1
    24    32    40    1
    25    41    42    1
    26    41    43    1
    27    15    19    2
    28    16    22    2
    29    17    12    1
    30    17    19   ar
    31    17    20   ar
    32    18    19   ar
    33    18    22   ar
    34    18    23    1
    35     9    10    1
    36     9    11    1
    37    10    12    1
    38    11     5    1
    39    33    34    1
    40    33    35    1
    41    34    36    1
    42    35    37    1
    43    36    42    1
    44    20    21   ar
    45    21    22   ar
@<TRIPOS>MOLECULE
*****
 43 45 0 0 0
SMALL
GASTEIGER

@<TRIPOS>ATOM
      1 P          21.6456   70.3925   -0.9697 P.3     1  UNL1        0.2189
      2 O          23.1040   70.6713   -1.6123 O.co2   1  UNL1       -0.4371
      3 O          21.6411   69.4751    0.2176 O.2     1  UNL1       -0.5170
      4 O          20.7507   69.9149   -2.2302 O.3     1  UNL1       -0.3112
      5 C          20.5473   70.8237   -3.2981 C.3     1  UNL1        0.1811
      6 O          18.8107   71.9945   -4.4760 O.3     1  UNL1       -0.3308
      7 O          16.9432   70.9601   -2.3704 O.3     1  UNL1       -0.3794
      8 O          16.4747   69.2731   -4.4611 O.3     1  UNL1       -0.3779
      9 C          18.0750   70.3253   -2.9633 C.3     1  UNL1        0.1713
     10 C          17.7486   69.8784   -4.3730 C.3     1  UNL1        0.1895
     11 C          19.1372   71.3904   -3.2052 C.3     1  UNL1        0.1764
     12 C          17.8298   71.1847   -5.1444 C.3     1  UNL1        0.2383
     13 H          16.2514   70.2996   -2.2062 H       1  UNL1        0.2105
     14 H          16.4738   68.4460   -3.9545 H       1  UNL1        0.2106
     15 O          16.0846   70.4486   -7.2398 O.2     1  UNL1       -0.2464
     16 O          19.4983   70.4692  -10.3361 O.2     1  UNL1       -0.2670
     17 N          18.2357   70.9912   -6.5080 N.ar    1  UNL1       -0.2551
     18 N          17.7857   70.4596   -8.7798 N.ar    1  UNL1       -0.2743
     19 C          17.2806   70.6211   -7.4834 C.ar    1  UNL1        0.3323
     20 C          19.5676   71.1687   -6.8664 C.ar    1  UNL1        0.0869
     21 C          20.0333   71.0096   -8.1069 C.ar    1  UNL1        0.0795
     22 C          19.1008   70.6233   -9.1854 C.ar    1  UNL1        0.2626
     23 H          17.1387   70.2016   -9.4759 H       1  UNL1        0.1734
     24 O          21.0890   71.8807   -0.6721 O.3     1  UNL1       -0.2703
     25 P          21.5674   72.9999    0.3916 P.3     1  UNL1        0.2208
     26 O          22.1196   72.1207    1.6323 O.co2   1  UNL1       -0.4371
     27 O          20.5031   73.9923    0.7611 O.2     1  UNL1       -0.5170
     28 O          22.8893   73.6509   -0.2670 O.3     1  UNL1       -0.2858
     29 O          23.6111   75.9061   -0.3636 O.3     1  UNL1       -0.3258
     30 O          24.8716   74.6497   -4.0897 O.3     1  UNL1       -0.3794
     31 O          26.8093   75.1333   -2.0258 O.3     1  UNL1       -0.3794
     32 O          22.3540   73.7012   -3.0213 O.3     1  UNL1       -0.3775
     33 C          24.5974   74.5138   -2.6926 C.3     1  UNL1        0.1715
     34 C          25.4459   75.5373   -1.9356 C.3     1  UNL1        0.1694
     35 C          23.1102   74.7630   -2.4493 C.3     1  UNL1        0.1967
     36 C          25.0142   75.6365   -0.4663 C.3     1  UNL1        0.1761
     37 C          22.7961   74.8940   -0.9579 C.3     1  UNL1        0.2704
     38 H          25.8143   74.4922   -4.2511 H       1  UNL1        0.2105
     39 H          27.0692   75.0740   -2.9587 H       1  UNL1        0.2105
     40 H          22.5615   73.6287   -3.9655 H       1  UNL1        0.2106
     41 O          24.8014   77.4499    1.0750 O.3     1  UNL1       -0.3794
     42 C          25.7396   76.7618    0.2683 C.3     1  UNL1        0.1693
     43 H          25.2490   78.1688    1.5487 H       1  UNL1        0.2105
@<TRIPOS>UNITY_ATOM_ATTR
2 1
charge -1
26 1
charge -1
@<TRIPOS>BOND
     1    25    28    1
     2    25    24    1
     3    25    26    1
     4    25    27    2
     5     1     4    1
     6     1    24    1
     7     1     2    1
     8     1     3    2
     9     6    11    1
    10     6    12    1
    11    29    36    1
    12    29    37    1
    13     7     9    1
    14     7    13    1
    15     8    10    1
    16     8    14    1
    17    28    37    1
    18     4     5    1
    19    30    33    1
    20    30    38    1
    21    31    34    1
    22    31    39    1
    23    32    35    1
    24    32    40    1
    25    41    42    1
    26    41    43    1
    27    15    19    2
    28    16    22    2
    29    17    12    1
    30    17    19   ar
    31    17    20   ar
    32    18    19   ar
    33    18    22   ar
    34    18    23    1
    35     9    10    1
    36     9    11    1
    37    10    12    1
    38    11     5    1
    39    33    34    1
    40    33    35    1
    41    34    36    1
    42    35    37    1
    43    36    42    1
    44    20    21   ar
    45    21    22   ar
@<TRIPOS>MOLECULE
*****
 43 45 0 0 0
SMALL
GASTEIGER

@<TRIPOS>ATOM
      1 P          22.5994   73.0099   -3.3101 P.3     1  UNL1        0.2189
      2 O          21.6281   73.8600   -4.2855 O.co2   1  UNL1       -0.4371
      3 O          23.8883   72.5612   -3.9335 O.2     1  UNL1       -0.5170
      4 O          21.6458   71.8322   -2.7429 O.3     1  UNL1       -0.3112
      5 C          20.8320   71.1208   -3.6591 C.3     1  UNL1        0.1811
      6 O          18.9013   72.0749   -4.7249 O.3     1  UNL1       -0.3308
      7 O          17.3133   70.9275   -2.4550 O.3     1  UNL1       -0.3794
      8 O          16.8619   69.1365   -4.4613 O.3     1  UNL1       -0.3779
      9 C          18.4556   70.3899   -3.1194 C.3     1  UNL1        0.1713
     10 C          18.0706   69.8680   -4.4880 C.3     1  UNL1        0.1895
     11 C          19.3827   71.5471   -3.4695 C.3     1  UNL1        0.1764
     12 C          17.9601   71.1506   -5.2947 C.3     1  UNL1        0.2383
     13 H          16.7066   70.2070   -2.2211 H       1  UNL1        0.2105
     14 H          16.9834   68.3300   -3.9364 H       1  UNL1        0.2106
     15 O          16.0856   70.4147   -7.2753 O.2     1  UNL1       -0.2464
     16 O          19.2980   70.4273  -10.5801 O.2     1  UNL1       -0.2670
     17 N          18.2792   70.9551   -6.6808 N.ar    1  UNL1       -0.2551
     18 N          17.6866   70.4217   -8.9193 N.ar    1  UNL1       -0.2743
     19 C          17.2642   70.5853   -7.5938 C.ar    1  UNL1        0.3323
     20 C          19.5861   71.1303   -7.1224 C.ar    1  UNL1        0.0869
     21 C          19.9728   70.9692   -8.3896 C.ar    1  UNL1        0.0795
     22 C          18.9738   70.5831   -9.4069 C.ar    1  UNL1        0.2626
     23 H          16.9968   70.1638   -9.5730 H       1  UNL1        0.1734
     24 O          22.7735   73.9838   -2.0318 O.3     1  UNL1       -0.2703
     25 P          21.7988   75.1203   -1.4225 P.3     1  UNL1        0.2208
     26 O          20.3201   74.5104   -1.6662 O.co2   1  UNL1       -0.4371
     27 O          22.0084   76.4878   -2.0054 O.2     1  UNL1       -0.5170
     28 O          22.0176   75.0330    0.1742 O.3     1  UNL1       -0.2858
     29 O          23.7357   74.5764    1.7414 O.3     1  UNL1       -0.3258
     30 O          20.9055   71.8735    3.0588 O.3     1  UNL1       -0.3794
     31 O          21.4481   74.2281    4.6110 O.3     1  UNL1       -0.3794
     32 O          21.2526   72.3335    0.2220 O.3     1  UNL1       -0.3775
     33 C          21.3701   73.1055    2.5005 C.3     1  UNL1        0.1715
     34 C          22.2690   73.7906    3.5316 C.3     1  UNL1        0.1694
     35 C          22.1487   72.8110    1.2197 C.3     1  UNL1        0.1967
     36 C          23.0160   74.9796    2.9124 C.3     1  UNL1        0.1761
     37 C          22.8941   74.0477    0.7148 C.3     1  UNL1        0.2704
     38 H          20.4099   72.0536    3.8721 H       1  UNL1        0.2105
     39 H          20.9817   73.4680    4.9928 H       1  UNL1        0.2105
     40 H          20.7871   71.5504    0.5536 H       1  UNL1        0.2106
     41 O          25.3257   75.1319    3.5051 O.3     1  UNL1       -0.3794
     42 C          24.0355   75.5801    3.8779 C.3     1  UNL1        0.1693
     43 H          25.9849   75.5064    4.1108 H       1  UNL1        0.2105
@<TRIPOS>UNITY_ATOM_ATTR
2 1
charge -1
26 1
charge -1
@<TRIPOS>BOND
     1    25    28    1
     2    25    24    1
     3    25    26    1
     4    25    27    2
     5     1     4    1
     6     1    24    1
     7     1     2    1
     8     1     3    2
     9     6    11    1
    10     6    12    1
    11    29    36    1
    12    29    37    1
    13     7     9    1
    14     7    13    1
    15     8    10    1
    16     8    14    1
    17    28    37    1
    18     4     5    1
    19    30    33    1
    20    30    38    1
    21    31    34    1
    22    31    39    1
    23    32    35    1
    24    32    40    1
    25    41    42    1
    26    41    43    1
    27    15    19    2
    28    16    22    2
    29    17    12    1
    30    17    19   ar
    31    17    20   ar
    32    18    19   ar
    33    18    22   ar
    34    18    23    1
    35     9    10    1
    36     9    11    1
    37    10    12    1
    38    11     5    1
    39    33    34    1
    40    33    35    1
    41    34    36    1
    42    35    37    1
    43    36    42    1
    44    20    21   ar
    45    21    22   ar
@<TRIPOS>MOLECULE
*****
 43 45 0 0 0
SMALL
GASTEIGER

@<TRIPOS>ATOM
      1 P          22.9611   72.0289   -2.8831 P.3     1  UNL1        0.2189
      2 O          23.4001   70.5028   -3.1925 O.co2   1  UNL1       -0.4371
      3 O          23.0542   72.4353   -1.4417 O.2     1  UNL1       -0.5170
      4 O          21.4949   72.1553   -3.5554 O.3     1  UNL1       -0.3112
      5 C          20.6618   71.0093   -3.5811 C.3     1  UNL1        0.1811
      6 O          18.7806   71.9972   -4.7031 O.3     1  UNL1       -0.3308
      7 O          17.0999   70.8363   -2.5079 O.3     1  UNL1       -0.3794
      8 O          16.7042   69.0767   -4.5533 O.3     1  UNL1       -0.3779
      9 C          18.2603   70.2958   -3.1378 C.3     1  UNL1        0.1713
     10 C          17.9202   69.7960   -4.5263 C.3     1  UNL1        0.1895
     11 C          19.2108   71.4479   -3.4383 C.3     1  UNL1        0.1764
     12 C          17.8516   71.0902   -5.3190 C.3     1  UNL1        0.2383
     13 H          16.4781   70.1191   -2.3060 H       1  UNL1        0.2105
     14 H          16.7987   68.2621   -4.0353 H       1  UNL1        0.2106
     15 O          16.0385   70.4279   -7.3810 O.2     1  UNL1       -0.2464
     16 O          19.3739   70.4215  -10.5616 O.2     1  UNL1       -0.2670
     17 N          18.2190   70.9097   -6.6952 N.ar    1  UNL1       -0.2551
     18 N          17.7007   70.4254   -8.9631 N.ar    1  UNL1       -0.2743
     19 C          17.2318   70.5772   -7.6519 C.ar    1  UNL1        0.3323
     20 C          19.5453   71.0628   -7.0842 C.ar    1  UNL1        0.0869
     21 C          19.9764   70.9133   -8.3384 C.ar    1  UNL1        0.0795
     22 C          19.0088   70.5658   -9.3990 C.ar    1  UNL1        0.2626
     23 H          17.0309   70.1934   -9.6466 H       1  UNL1        0.1734
     24 O          23.8956   72.8863   -3.8854 O.3     1  UNL1       -0.2703
     25 P          24.2611   74.4607   -3.9100 P.3     1  UNL1        0.2208
     26 O          23.6086   75.0145   -2.5370 O.co2   1  UNL1       -0.4371
     27 O          23.8044   75.1792   -5.1465 O.2     1  UNL1       -0.5170
     28 O          25.8539   74.5143   -3.6550 O.3     1  UNL1       -0.2858
     29 O          27.1329   76.0323   -2.3602 O.3     1  UNL1       -0.3258
     30 O          29.7940   75.3985   -5.4534 O.3     1  UNL1       -0.3794
     31 O          30.3236   74.2583   -2.8712 O.3     1  UNL1       -0.3794
     32 O          26.9580   75.5826   -6.0034 O.3     1  UNL1       -0.3775
     33 C          28.7740   75.0385   -4.5177 C.3     1  UNL1        0.1715
     34 C          29.3239   75.2463   -3.1052 C.3     1  UNL1        0.1694
     35 C          27.5481   75.9190   -4.7524 C.3     1  UNL1        0.1967
     36 C          28.2097   75.1382   -2.0555 C.3     1  UNL1        0.1761
     37 C          26.5233   75.7722   -3.6262 C.3     1  UNL1        0.2704
     38 H          30.5751   74.8427   -5.3101 H       1  UNL1        0.2105
     39 H          31.0209   74.3371   -3.5411 H       1  UNL1        0.2105
     40 H          27.6167   75.6799   -6.7081 H       1  UNL1        0.2106
     41 O          29.6504   74.5244   -0.2509 O.3     1  UNL1       -0.3794
     42 C          28.7053   75.4974   -0.6564 C.3     1  UNL1        0.1693
     43 H          29.9748   74.7403    0.6378 H       1  UNL1        0.2105
@<TRIPOS>UNITY_ATOM_ATTR
2 1
charge -1
26 1
charge -1
@<TRIPOS>BOND
     1    25    28    1
     2    25    24    1
     3    25    26    1
     4    25    27    2
     5     1     4    1
     6     1    24    1
     7     1     2    1
     8     1     3    2
     9     6    11    1
    10     6    12    1
    11    29    36    1
    12    29    37    1
    13     7     9    1
    14     7    13    1
    15     8    10    1
    16     8    14    1
    17    28    37    1
    18     4     5    1
    19    30    33    1
    20    30    38    1
    21    31    34    1
    22    31    39    1
    23    32    35    1
    24    32    40    1
    25    41    42    1
    26    41    43    1
    27    15    19    2
    28    16    22    2
    29    17    12    1
    30    17    19   ar
    31    17    20   ar
    32    18    19   ar
    33    18    22   ar
    34    18    23    1
    35     9    10    1
    36     9    11    1
    37    10    12    1
    38    11     5    1
    39    33    34    1
    40    33    35    1
    41    34    36    1
    42    35    37    1
    43    36    42    1
    44    20    21   ar
    45    21    22   ar
@<TRIPOS>MOLECULE
*****
 43 45 0 0 0
SMALL
GASTEIGER

@<TRIPOS>ATOM
      1 P          22.9198   71.9531   -3.0174 P.3     1  UNL1        0.2189
      2 O          23.7005   70.5619   -3.2863 O.co2   1  UNL1       -0.4371
      3 O          22.7654   72.3241   -1.5717 O.2     1  UNL1       -0.5170
      4 O          21.5433   71.7937   -3.8528 O.3     1  UNL1       -0.3112
      5 C          20.6874   70.7073   -3.5447 C.3     1  UNL1        0.1811
      6 O          18.8708   71.8539   -4.6214 O.3     1  UNL1       -0.3308
      7 O          17.1205   70.7066   -2.4741 O.3     1  UNL1       -0.3794
      8 O          16.6204   69.0615   -4.5907 O.3     1  UNL1       -0.3779
      9 C          18.2464   70.1233   -3.1278 C.3     1  UNL1        0.1713
     10 C          17.8779   69.7037   -4.5355 C.3     1  UNL1        0.1895
     11 C          19.2656   71.2270   -3.3814 C.3     1  UNL1        0.1764
     12 C          17.8890   71.0317   -5.2733 C.3     1  UNL1        0.2383
     13 H          16.4560   70.0207   -2.3013 H       1  UNL1        0.2105
     14 H          16.6645   68.2217   -4.1073 H       1  UNL1        0.2106
     15 O          16.0536   70.4664   -7.3444 O.2     1  UNL1       -0.2464
     16 O          19.3722   70.4969  -10.5423 O.2     1  UNL1       -0.2670
     17 N          18.2460   70.8870   -6.6564 N.ar    1  UNL1       -0.2551
     18 N          17.7074   70.4822   -8.9351 N.ar    1  UNL1       -0.2743
     19 C          17.2480   70.6022   -7.6173 C.ar    1  UNL1        0.3323
     20 C          19.5730   71.0276   -7.0479 C.ar    1  UNL1        0.0869
     21 C          19.9949   70.9090   -8.3085 C.ar    1  UNL1        0.0795
     22 C          19.0156   70.6120   -9.3738 C.ar    1  UNL1        0.2626
     23 H          17.0300   70.2836   -9.6216 H       1  UNL1        0.1734
     24 O          23.7587   73.0170   -3.8991 O.3     1  UNL1       -0.2703
     25 P          23.3301   74.4389   -4.5373 P.3     1  UNL1        0.2208
     26 O          22.3172   75.0506   -3.4340 O.co2   1  UNL1       -0.4371
     27 O          22.7549   74.3441   -5.9208 O.2     1  UNL1       -0.5170
     28 O          24.6555   75.3531   -4.4251 O.3     1  UNL1       -0.2858
     29 O          26.9499   74.7610   -4.3892 O.3     1  UNL1       -0.3258
     30 O          27.0274   77.8668   -1.6691 O.3     1  UNL1       -0.3794
     31 O          28.1627   78.2404   -4.2805 O.3     1  UNL1       -0.3794
     32 O          24.7859   76.0354   -1.7062 O.3     1  UNL1       -0.3775
     33 C          26.5865   77.1677   -2.8363 C.3     1  UNL1        0.1715
     34 C          27.7905   76.9677   -3.7589 C.3     1  UNL1        0.1694
     35 C          25.9992   75.8207   -2.4192 C.3     1  UNL1        0.1967
     36 C          27.4581   75.9984   -4.9013 C.3     1  UNL1        0.1761
     37 C          25.7514   74.9144   -3.6265 C.3     1  UNL1        0.2704
     38 H          27.4010   78.7232   -1.9269 H       1  UNL1        0.2105
     39 H          28.3696   78.8431   -3.5490 H       1  UNL1        0.2105
     40 H          24.9562   76.6102   -0.9443 H       1  UNL1        0.2106
     41 O          28.6641   74.2779   -6.0389 O.3     1  UNL1       -0.3794
     42 C          28.6878   75.6620   -5.7419 C.3     1  UNL1        0.1693
     43 H          29.4408   74.0493   -6.5738 H       1  UNL1        0.2105
@<TRIPOS>UNITY_ATOM_ATTR
2 1
charge -1
26 1
charge -1
@<TRIPOS>BOND
     1    25    28    1
     2    25    24    1
     3    25    26    1
     4    25    27    2
     5     1     4    1
     6     1    24    1
     7     1     2    1
     8     1     3    2
     9     6    11    1
    10     6    12    1
    11    29    36    1
    12    29    37    1
    13     7     9    1
    14     7    13    1
    15     8    10    1
    16     8    14    1
    17    28    37    1
    18     4     5    1
    19    30    33    1
    20    30    38    1
    21    31    34    1
    22    31    39    1
    23    32    35    1
    24    32    40    1
    25    41    42    1
    26    41    43    1
    27    15    19    2
    28    16    22    2
    29    17    12    1
    30    17    19   ar
    31    17    20   ar
    32    18    19   ar
    33    18    22   ar
    34    18    23    1
    35     9    10    1
    36     9    11    1
    37    10    12    1
    38    11     5    1
    39    33    34    1
    40    33    35    1
    41    34    36    1
    42    35    37    1
    43    36    42    1
    44    20    21   ar
    45    21    22   ar
@<TRIPOS>MOLECULE
*****
 43 45 0 0 0
SMALL
GASTEIGER

@<TRIPOS>ATOM
      1 P          22.0185   74.8721   -5.7532 P.3     1  UNL1        0.2189
      2 O          20.9581   76.0939   -5.7353 O.co2   1  UNL1       -0.4371
      3 O          23.2953   75.1518   -6.4900 O.2     1  UNL1       -0.5170
      4 O          21.1548   73.6161   -6.2957 O.3     1  UNL1       -0.3112
      5 C          21.7213   72.7877   -7.2960 C.3     1  UNL1        0.1811
      6 O          20.0781   71.1196   -7.8353 O.3     1  UNL1       -0.3308
      7 O          18.8088   73.2023   -9.5794 O.3     1  UNL1       -0.3794
      8 O          17.2354   73.2523   -7.3527 O.3     1  UNL1       -0.3779
      9 C          19.4631   73.3560   -8.3210 C.3     1  UNL1        0.1713
     10 C          18.5796   72.8433   -7.2029 C.3     1  UNL1        0.1895
     11 C          20.6311   72.3787   -8.2770 C.3     1  UNL1        0.1764
     12 C          18.7507   71.3391   -7.3306 C.3     1  UNL1        0.2383
     13 H          18.0592   73.8167   -9.6310 H       1  UNL1        0.2105
     14 H          17.1787   74.2165   -7.2632 H       1  UNL1        0.2106
     15 O          16.3255   70.2773   -6.3465 O.2     1  UNL1       -0.2464
     16 O          18.3403   68.7684   -2.4858 O.2     1  UNL1       -0.2670
     17 N          18.6129   70.6633   -6.0714 N.ar    1  UNL1       -0.2551
     18 N          17.3307   69.5267   -4.4251 N.ar    1  UNL1       -0.2743
     19 C          17.3502   70.1684   -5.6700 C.ar    1  UNL1        0.3323
     20 C          19.7221   70.4967   -5.2493 C.ar    1  UNL1        0.0869
     21 C          19.6865   69.8836   -4.0644 C.ar    1  UNL1        0.0795
     22 C          18.4057   69.3374   -3.5711 C.ar    1  UNL1        0.2626
     23 H          16.4617   69.1741   -4.1245 H       1  UNL1        0.1734
     24 O          22.2078   74.5323   -4.1842 O.3     1  UNL1       -0.2703
     25 P          23.5426   74.3645   -3.2879 P.3     1  UNL1        0.2208
     26 O          23.7913   75.8551   -2.7102 O.co2   1  UNL1       -0.4371
     27 O          24.7124   73.7844   -4.0288 O.2     1  UNL1       -0.5170
     28 O          23.0690   73.5046   -2.0069 O.3     1  UNL1       -0.2858
     29 O          21.7180   71.6151   -1.5364 O.3     1  UNL1       -0.3258
     30 O          20.0869   74.2808    1.1625 O.3     1  UNL1       -0.3794
     31 O          21.7334   72.1287    2.1139 O.3     1  UNL1       -0.3794
     32 O          20.8976   75.1965   -1.4612 O.3     1  UNL1       -0.3775
     33 C          21.1335   73.6799    0.3951 C.3     1  UNL1        0.1715
     34 C          21.2264   72.2033    0.7844 C.3     1  UNL1        0.1694
     35 C          20.8094   73.8249   -1.0906 C.3     1  UNL1        0.1967
     36 C          22.1388   71.4327   -0.1794 C.3     1  UNL1        0.1761
     37 C          21.7446   72.9802   -1.9578 C.3     1  UNL1        0.2704
     38 H          20.2868   74.1927    2.1068 H       1  UNL1        0.2105
     39 H          21.1485   72.6196    2.7123 H       1  UNL1        0.2105
     40 H          20.3008   75.7206   -0.9053 H       1  UNL1        0.2106
     41 O          23.0409   69.6530    1.1352 O.3     1  UNL1       -0.3794
     42 C          22.1216   69.9305    0.0948 C.3     1  UNL1        0.1693
     43 H          23.0404   68.7005    1.3207 H       1  UNL1        0.2105
@<TRIPOS>UNITY_ATOM_ATTR
2 1
charge -1
26 1
charge -1
@<TRIPOS>BOND
     1    25    28    1
     2    25    24    1
     3    25    26    1
     4    25    27    2
     5     1     4    1
     6     1    24    1
     7     1     2    1
     8     1     3    2
     9     6    11    1
    10     6    12    1
    11    29    36    1
    12    29    37    1
    13     7     9    1
    14     7    13    1
    15     8    10    1
    16     8    14    1
    17    28    37    1
    18     4     5    1
    19    30    33    1
    20    30    38    1
    21    31    34    1
    22    31    39    1
    23    32    35    1
    24    32    40    1
    25    41    42    1
    26    41    43    1
    27    15    19    2
    28    16    22    2
    29    17    12    1
    30    17    19   ar
    31    17    20   ar
    32    18    19   ar
    33    18    22   ar
    34    18    23    1
    35     9    10    1
    36     9    11    1
    37    10    12    1
    38    11     5    1
    39    33    34    1
    40    33    35    1
    41    34    36    1
    42    35    37    1
    43    36    42    1
    44    20    21   ar
    45    21    22   ar
@<TRIPOS>MOLECULE
*****
 43 45 0 0 0
SMALL
GASTEIGER

@<TRIPOS>ATOM
      1 P          22.3059   73.3506   -5.3587 P.3     1  UNL1        0.2189
      2 O          22.7381   74.7789   -5.9839 O.co2   1  UNL1       -0.4371
      3 O          23.4148   72.5873   -4.6960 O.2     1  UNL1       -0.5170
      4 O          21.5694   72.5963   -6.5861 O.3     1  UNL1       -0.3112
      5 C          20.8898   73.3801   -7.5513 C.3     1  UNL1        0.1811
      6 O          20.0069   71.1754   -7.9172 O.3     1  UNL1       -0.3308
      7 O          18.5379   72.3541  -10.2503 O.3     1  UNL1       -0.3794
      8 O          16.6018   72.2213   -8.3344 O.3     1  UNL1       -0.3779
      9 C          18.8332   72.9372   -8.9822 C.3     1  UNL1        0.1713
     10 C          17.9442   72.3424   -7.9100 C.3     1  UNL1        0.1895
     11 C          20.2137   72.4552   -8.5541 C.3     1  UNL1        0.1764
     12 C          18.6037   70.9958   -7.6652 C.3     1  UNL1        0.2383
     13 H          17.6608   72.6477  -10.5445 H       1  UNL1        0.2105
     14 H          16.2266   73.1044   -8.4767 H       1  UNL1        0.2106
     15 O          16.2630   69.7447   -6.6989 O.2     1  UNL1       -0.2464
     16 O          18.0380   69.2771   -2.4714 O.2     1  UNL1       -0.2670
     17 N          18.4271   70.5366   -6.3164 N.ar    1  UNL1       -0.2551
     18 N          17.1488   69.5127   -4.5948 N.ar    1  UNL1       -0.2743
     19 C          17.2123   69.9221   -5.9328 C.ar    1  UNL1        0.3323
     20 C          19.4518   70.6971   -5.3900 C.ar    1  UNL1        0.0869
     21 C          19.3750   70.3023   -4.1174 C.ar    1  UNL1        0.0795
     22 C          18.1396   69.6512   -3.6357 C.ar    1  UNL1        0.2626
     23 H          16.3118   69.0824   -4.3048 H       1  UNL1        0.1734
     24 O          21.0782   73.7382   -4.3812 O.3     1  UNL1       -0.2703
     25 P          21.0606   74.2126   -2.8361 P.3     1  UNL1        0.2208
     26 O          19.5298   74.6849   -2.6104 O.co2   1  UNL1       -0.4371
     27 O          22.0865   75.2562   -2.5010 O.2     1  UNL1       -0.5170
     28 O          21.1948   72.8461   -1.9877 O.3     1  UNL1       -0.2858
     29 O          22.8761   73.3122   -0.3837 O.3     1  UNL1       -0.3258
     30 O          21.9508   69.4464    0.7345 O.3     1  UNL1       -0.3794
     31 O          21.1221   71.6392    2.3936 O.3     1  UNL1       -0.3794
     32 O          22.0126   70.1629   -2.0695 O.3     1  UNL1       -0.3775
     33 C          21.6782   70.7603    0.2398 C.3     1  UNL1        0.1715
     34 C          22.0563   71.7696    1.3257 C.3     1  UNL1        0.1694
     35 C          22.5009   70.9980   -1.0252 C.3     1  UNL1        0.1967
     36 C          22.0449   73.2030    0.7778 C.3     1  UNL1        0.1761
     37 C          22.4615   72.4649   -1.4571 C.3     1  UNL1        0.2704
     38 H          21.4312   69.2888    1.5374 H       1  UNL1        0.2105
     39 H          21.1388   70.7295    2.7302 H       1  UNL1        0.2105
     40 H          22.0429   69.2369   -1.7838 H       1  UNL1        0.2106
     41 O          23.1134   75.3155    1.1010 O.3     1  UNL1       -0.3794
     42 C          22.5706   74.2097    1.7987 C.3     1  UNL1        0.1693
     43 H          23.4516   75.9647    1.7381 H       1  UNL1        0.2105
@<TRIPOS>UNITY_ATOM_ATTR
2 1
charge -1
26 1
charge -1
@<TRIPOS>BOND
     1    25    28    1
     2    25    24    1
     3    25    26    1
     4    25    27    2
     5     1     4    1
     6     1    24    1
     7     1     2    1
     8     1     3    2
     9     6    11    1
    10     6    12    1
    11    29    36    1
    12    29    37    1
    13     7     9    1
    14     7    13    1
    15     8    10    1
    16     8    14    1
    17    28    37    1
    18     4     5    1
    19    30    33    1
    20    30    38    1
    21    31    34    1
    22    31    39    1
    23    32    35    1
    24    32    40    1
    25    41    42    1
    26    41    43    1
    27    15    19    2
    28    16    22    2
    29    17    12    1
    30    17    19   ar
    31    17    20   ar
    32    18    19   ar
    33    18    22   ar
    34    18    23    1
    35     9    10    1
    36     9    11    1
    37    10    12    1
    38    11     5    1
    39    33    34    1
    40    33    35    1
    41    34    36    1
    42    35    37    1
    43    36    42    1
    44    20    21   ar
    45    21    22   ar
@<TRIPOS>MOLECULE
*****
 43 45 0 0 0
SMALL
GASTEIGER

@<TRIPOS>ATOM
      1 P          21.6754   73.3910   -6.0178 P.3     1  UNL1        0.2189
      2 O          20.6856   74.3618   -5.1840 O.co2   1  UNL1       -0.4371
      3 O          22.8803   74.0665   -6.6036 O.2     1  UNL1       -0.5170
      4 O          20.6974   72.6562   -7.0768 O.3     1  UNL1       -0.3112
      5 C          19.8730   71.5999   -6.6156 C.3     1  UNL1        0.1811
      6 O          17.6476   71.1739   -7.4153 O.3     1  UNL1       -0.3308
      7 O          18.8549   71.0664  -10.1578 O.3     1  UNL1       -0.3794
      8 O          17.7657   73.5654  -10.0854 O.3     1  UNL1       -0.3779
      9 C          19.2014   71.8977   -9.0515 C.3     1  UNL1        0.1713
     10 C          18.1599   72.9806   -8.8609 C.3     1  UNL1        0.1895
     11 C          19.0421   71.0756   -7.7787 C.3     1  UNL1        0.1764
     12 C          17.0319   72.2177   -8.1874 C.3     1  UNL1        0.2383
     13 H          18.9493   71.5696  -10.9823 H       1  UNL1        0.2105
     14 H          18.5174   74.0389  -10.4746 H       1  UNL1        0.2106
     15 O          14.8551   73.8145   -9.0181 O.2     1  UNL1       -0.2464
     16 O          14.1253   75.3677   -4.7407 O.2     1  UNL1       -0.2670
     17 N          16.2549   73.0490   -7.3118 N.ar    1  UNL1       -0.2551
     18 N          14.4934   74.5864   -6.8876 N.ar    1  UNL1       -0.2743
     19 C          15.1829   73.8124   -7.8298 C.ar    1  UNL1        0.3323
     20 C          16.5585   73.1012   -5.9557 C.ar    1  UNL1        0.0869
     21 C          15.8921   73.8453   -5.0706 C.ar    1  UNL1        0.0795
     22 C          14.7578   74.6727   -5.5299 C.ar    1  UNL1        0.2626
     23 H          13.7428   75.1269   -7.2256 H       1  UNL1        0.1734
     24 O          22.0108   72.2173   -4.9581 O.3     1  UNL1       -0.2703
     25 P          23.0150   72.1856   -3.6918 P.3     1  UNL1        0.2208
     26 O          24.1710   73.2380   -4.1085 O.co2   1  UNL1       -0.4371
     27 O          23.5212   70.8162   -3.3420 O.2     1  UNL1       -0.5170
     28 O          22.2021   72.9210   -2.5072 O.3     1  UNL1       -0.2858
     29 O          21.2749   71.1834   -1.1888 O.3     1  UNL1       -0.3258
     30 O          19.8012   74.4393    0.8796 O.3     1  UNL1       -0.3794
     31 O          21.9120   72.8667    2.0283 O.3     1  UNL1       -0.3794
     32 O          19.9414   74.5078   -2.0109 O.3     1  UNL1       -0.3775
     33 C          20.7608   73.7107    0.1091 C.3     1  UNL1        0.1715
     34 C          21.1537   72.4572    0.8936 C.3     1  UNL1        0.1694
     35 C          20.1388   73.3317   -1.2336 C.3     1  UNL1        0.1967
     36 C          21.9717   71.4931    0.0238 C.3     1  UNL1        0.1761
     37 C          21.0090   72.3315   -1.9969 C.3     1  UNL1        0.2704
     38 H          20.1900   74.6834    1.7333 H       1  UNL1        0.2105
     39 H          21.3843   73.4754    2.5688 H       1  UNL1        0.2105
     40 H          19.3889   75.1328   -1.5169 H       1  UNL1        0.2106
     41 O          23.4749   69.6528    0.2739 O.3     1  UNL1       -0.3794
     42 C          22.2397   70.1686    0.7350 C.3     1  UNL1        0.1693
     43 H          23.6587   68.8099    0.7182 H       1  UNL1        0.2105
@<TRIPOS>UNITY_ATOM_ATTR
2 1
charge -1
26 1
charge -1
@<TRIPOS>BOND
     1    25    28    1
     2    25    24    1
     3    25    26    1
     4    25    27    2
     5     1     4    1
     6     1    24    1
     7     1     2    1
     8     1     3    2
     9     6    11    1
    10     6    12    1
    11    29    36    1
    12    29    37    1
    13     7     9    1
    14     7    13    1
    15     8    10    1
    16     8    14    1
    17    28    37    1
    18     4     5    1
    19    30    33    1
    20    30    38    1
    21    31    34    1
    22    31    39    1
    23    32    35    1
    24    32    40    1
    25    41    42    1
    26    41    43    1
    27    15    19    2
    28    16    22    2
    29    17    12    1
    30    17    19   ar
    31    17    20   ar
    32    18    19   ar
    33    18    22   ar
    34    18    23    1
    35     9    10    1
    36     9    11    1
    37    10    12    1
    38    11     5    1
    39    33    34    1
    40    33    35    1
    41    34    36    1
    42    35    37    1
    43    36    42    1
    44    20    21   ar
    45    21    22   ar
@<TRIPOS>MOLECULE
*****
 43 45 0 0 0
SMALL
GASTEIGER

@<TRIPOS>ATOM
      1 P          19.5367   69.4855   -3.6465 P.3     1  UNL1        0.2189
      2 O          19.8916   69.8050   -5.1923 O.co2   1  UNL1       -0.4371
      3 O          18.9073   68.1450   -3.4048 O.2     1  UNL1       -0.5170
      4 O          18.6666   70.7656   -3.1752 O.3     1  UNL1       -0.3112
      5 C          17.5106   71.1084   -3.9194 C.3     1  UNL1        0.1811
      6 O          18.4000   72.8759   -5.2828 O.3     1  UNL1       -0.3308
      7 O          16.1183   74.5435   -4.2810 O.3     1  UNL1       -0.3794
      8 O          15.2646   73.7964   -6.7608 O.3     1  UNL1       -0.3779
      9 C          16.1504   73.1512   -4.5905 C.3     1  UNL1        0.1713
     10 C          16.1732   72.9465   -6.0909 C.3     1  UNL1        0.1895
     11 C          17.5125   72.6094   -4.1749 C.3     1  UNL1        0.1764
     12 C          17.6216   73.2562   -6.4292 C.3     1  UNL1        0.2383
     13 H          15.2577   74.9117   -4.5372 H       1  UNL1        0.2105
     14 H          14.3573   73.5597   -6.5128 H       1  UNL1        0.2106
     15 O          18.8718   74.4255   -8.6759 O.2     1  UNL1       -0.2464
     16 O          19.3606   70.3429  -10.7579 O.2     1  UNL1       -0.2670
     17 N          18.0859   72.5223   -7.5725 N.ar    1  UNL1       -0.2551
     18 N          19.1144   72.3917   -9.7107 N.ar    1  UNL1       -0.2743
     19 C          18.6995   73.2051   -8.6485 C.ar    1  UNL1        0.3323
     20 C          17.9315   71.1410   -7.6189 C.ar    1  UNL1        0.0869
     21 C          18.3314   70.3800   -8.6397 C.ar    1  UNL1        0.0795
     22 C          18.9819   71.0153   -9.8038 C.ar    1  UNL1        0.2626
     23 H          19.5441   72.8456  -10.4716 H       1  UNL1        0.1734
     24 O          20.9501   69.7104   -2.8951 O.3     1  UNL1       -0.2703
     25 P          21.9565   70.9752   -2.8830 P.3     1  UNL1        0.2208
     26 O          21.3126   71.9722   -3.9826 O.co2   1  UNL1       -0.4371
     27 O          23.3935   70.6207   -3.1348 O.2     1  UNL1       -0.5170
     28 O          21.6847   71.7001   -1.4668 O.3     1  UNL1       -0.2858
     29 O          23.2775   73.0325   -0.3247 O.3     1  UNL1       -0.3258
     30 O          21.0738   71.7195    2.9112 O.3     1  UNL1       -0.3794
     31 O          20.8428   74.4503    2.0525 O.3     1  UNL1       -0.3794
     32 O          21.6091   69.9240    0.7045 O.3     1  UNL1       -0.3775
     33 C          21.2789   72.1501    1.5629 C.3     1  UNL1        0.1715
     34 C          21.8608   73.5647    1.5945 C.3     1  UNL1        0.1694
     35 C          22.2433   71.1873    0.8726 C.3     1  UNL1        0.1967
     36 C          22.3552   73.9915    0.2058 C.3     1  UNL1        0.1761
     37 C          22.7117   71.7294   -0.4790 C.3     1  UNL1        0.2704
     38 H          20.4620   72.3263    3.3550 H       1  UNL1        0.2105
     39 H          20.5390   74.1694    2.9300 H       1  UNL1        0.2105
     40 H          21.3175   69.5914    1.5672 H       1  UNL1        0.2106
     41 O          22.1148   76.3686    0.2264 O.3     1  UNL1       -0.3794
     42 C          23.0814   75.3344    0.2450 C.3     1  UNL1        0.1693
     43 H          22.5625   77.2292    0.2513 H       1  UNL1        0.2105
@<TRIPOS>UNITY_ATOM_ATTR
2 1
charge -1
26 1
charge -1
@<TRIPOS>BOND
     1    25    28    1
     2    25    24    1
     3    25    26    1
     4    25    27    2
     5     1     4    1
     6     1    24    1
     7     1     2    1
     8     1     3    2
     9     6    11    1
    10     6    12    1
    11    29    36    1
    12    29    37    1
    13     7     9    1
    14     7    13    1
    15     8    10    1
    16     8    14    1
    17    28    37    1
    18     4     5    1
    19    30    33    1
    20    30    38    1
    21    31    34    1
    22    31    39    1
    23    32    35    1
    24    32    40    1
    25    41    42    1
    26    41    43    1
    27    15    19    2
    28    16    22    2
    29    17    12    1
    30    17    19   ar
    31    17    20   ar
    32    18    19   ar
    33    18    22   ar
    34    18    23    1
    35     9    10    1
    36     9    11    1
    37    10    12    1
    38    11     5    1
    39    33    34    1
    40    33    35    1
    41    34    36    1
    42    35    37    1
    43    36    42    1
    44    20    21   ar
    45    21    22   ar
@<TRIPOS>MOLECULE
*****
 43 45 0 0 0
SMALL
GASTEIGER

@<TRIPOS>ATOM
      1 P          19.7837   74.6654   -4.0154 P.3     1  UNL1        0.2189
      2 O          19.9634   75.3077   -2.5415 O.co2   1  UNL1       -0.4371
      3 O          18.8986   75.4450   -4.9429 O.2     1  UNL1       -0.5170
      4 O          19.3253   73.1418   -3.7219 O.3     1  UNL1       -0.3112
      5 C          19.6159   72.5807   -2.4536 C.3     1  UNL1        0.1811
      6 O          21.9670   72.2713   -2.0660 O.3     1  UNL1       -0.3308
      7 O          21.4413   69.3356   -2.3760 O.3     1  UNL1       -0.3794
      8 O          21.5872   69.6307    0.3311 O.3     1  UNL1       -0.3779
      9 C          20.6210   70.3415   -1.7838 C.3     1  UNL1        0.1713
     10 C          21.1764   70.7455   -0.4340 C.3     1  UNL1        0.1895
     11 C          20.7898   71.6212   -2.5932 C.3     1  UNL1        0.1764
     12 C          22.3364   71.6444   -0.8268 C.3     1  UNL1        0.2383
     13 H          21.3499   68.5086   -1.8764 H       1  UNL1        0.2105
     14 H          20.8140   69.0901    0.5560 H       1  UNL1        0.2106
     15 O          21.2857   71.6431    1.7950 O.2     1  UNL1       -0.2464
     16 O          23.3989   75.6032    2.8404 O.2     1  UNL1       -0.2670
     17 N          22.5960   72.6626    0.1516 N.ar    1  UNL1       -0.2551
     18 N          22.3389   73.6148    2.3134 N.ar    1  UNL1       -0.2743
     19 C          22.0187   72.5682    1.4393 C.ar    1  UNL1        0.3323
     20 C          23.4152   73.7395   -0.1695 C.ar    1  UNL1        0.0869
     21 C          23.7097   74.7301    0.6750 C.ar    1  UNL1        0.0795
     22 C          23.1470   74.7072    2.0406 C.ar    1  UNL1        0.2626
     23 H          21.9478   73.5705    3.2161 H       1  UNL1        0.1734
     24 O          21.3080   74.4944   -4.5256 O.3     1  UNL1       -0.2703
     25 P          21.9064   73.8750   -5.8935 P.3     1  UNL1        0.2208
     26 O          22.7148   72.5684   -5.3868 O.co2   1  UNL1       -0.4371
     27 O          22.7297   74.8395   -6.6972 O.2     1  UNL1       -0.5170
     28 O          20.6214   73.2833   -6.6705 O.3     1  UNL1       -0.2858
     29 O          19.6107   71.1668   -6.3306 O.3     1  UNL1       -0.3258
     30 O          18.8049   71.6446  -10.3522 O.3     1  UNL1       -0.3794
     31 O          16.6751   71.8867   -8.4408 O.3     1  UNL1       -0.3794
     32 O          21.3433   72.5238   -9.2738 O.3     1  UNL1       -0.3775
     33 C          18.9929   72.0740   -9.0010 C.3     1  UNL1        0.1715
     34 C          17.9613   71.3620   -8.1236 C.3     1  UNL1        0.1694
     35 C          20.4113   71.7206   -8.5577 C.3     1  UNL1        0.1967
     36 C          18.2681   71.5634   -6.6335 C.3     1  UNL1        0.1761
     37 C          20.5958   71.9101   -7.0510 C.3     1  UNL1        0.2704
     38 H          17.9063   71.8664  -10.6400 H       1  UNL1        0.2105
     39 H          16.4940   71.7536   -9.3845 H       1  UNL1        0.2105
     40 H          21.2165   72.3947  -10.2262 H       1  UNL1        0.2106
     41 O          16.5302   69.9249   -6.5698 O.3     1  UNL1       -0.3794
     42 C          17.3461   70.7338   -5.7426 C.3     1  UNL1        0.1693
     43 H          15.9383   69.3910   -6.0163 H       1  UNL1        0.2105
@<TRIPOS>UNITY_ATOM_ATTR
2 1
charge -1
26 1
charge -1
@<TRIPOS>BOND
     1    25    28    1
     2    25    24    1
     3    25    26    1
     4    25    27    2
     5     1     4    1
     6     1    24    1
     7     1     2    1
     8     1     3    2
     9     6    11    1
    10     6    12    1
    11    29    36    1
    12    29    37    1
    13     7     9    1
    14     7    13    1
    15     8    10    1
    16     8    14    1
    17    28    37    1
    18     4     5    1
    19    30    33    1
    20    30    38    1
    21    31    34    1
    22    31    39    1
    23    32    35    1
    24    32    40    1
    25    41    42    1
    26    41    43    1
    27    15    19    2
    28    16    22    2
    29    17    12    1
    30    17    19   ar
    31    17    20   ar
    32    18    19   ar
    33    18    22   ar
    34    18    23    1
    35     9    10    1
    36     9    11    1
    37    10    12    1
    38    11     5    1
    39    33    34    1
    40    33    35    1
    41    34    36    1
    42    35    37    1
    43    36    42    1
    44    20    21   ar
    45    21    22   ar
@<TRIPOS>MOLECULE
*****
 43 45 0 0 0
SMALL
GASTEIGER

@<TRIPOS>ATOM
      1 P          22.5144   73.0066   -4.6958 P.3     1  UNL1        0.2189
      2 O          21.5659   74.2850   -4.4069 O.co2   1  UNL1       -0.4371
      3 O          23.8946   73.0971   -4.1141 O.2     1  UNL1       -0.5170
      4 O          22.4394   72.8223   -6.3015 O.3     1  UNL1       -0.3112
      5 C          21.1991   73.0430   -6.9502 C.3     1  UNL1        0.1811
      6 O          19.1484   71.7974   -6.8199 O.3     1  UNL1       -0.3308
      7 O          20.3953   69.8994   -8.7779 O.3     1  UNL1       -0.3794
      8 O          18.7529   71.3931  -10.3615 O.3     1  UNL1       -0.3779
      9 C          20.5193   71.3181   -8.6925 C.3     1  UNL1        0.1713
     10 C          19.2511   71.9870   -9.1800 C.3     1  UNL1        0.1895
     11 C          20.5336   71.6999   -7.2176 C.3     1  UNL1        0.1764
     12 C          18.3201   71.7996   -7.9941 C.3     1  UNL1        0.2383
     13 H          20.3843   69.6315   -9.7107 H       1  UNL1        0.2105
     14 H          19.3803   71.5395  -11.0865 H       1  UNL1        0.2106
     15 O          15.9304   71.6289   -6.4981 O.2     1  UNL1       -0.2464
     16 O          14.6943   75.9199   -7.6386 O.2     1  UNL1       -0.2670
     17 N          17.3557   72.8574   -7.8824 N.ar    1  UNL1       -0.2551
     18 N          15.3169   73.7656   -7.0671 N.ar    1  UNL1       -0.2743
     19 C          16.1879   72.6694   -7.1070 C.ar    1  UNL1        0.3323
     20 C          17.5727   74.0649   -8.5371 C.ar    1  UNL1        0.0869
     21 C          16.7316   75.1002   -8.4901 C.ar    1  UNL1        0.0795
     22 C          15.4877   74.9859   -7.7015 C.ar    1  UNL1        0.2626
     23 H          14.4965   73.6575   -6.5332 H       1  UNL1        0.1734
     24 O          21.6327   71.7682   -4.1463 O.3     1  UNL1       -0.2703
     25 P          21.9198   70.7019   -2.9659 P.3     1  UNL1        0.2208
     26 O          23.5220   70.4894   -3.0395 O.co2   1  UNL1       -0.4371
     27 O          21.1216   69.4349   -3.0736 O.2     1  UNL1       -0.5170
     28 O          21.6805   71.5292   -1.6009 O.3     1  UNL1       -0.2858
     29 O          23.2676   72.9244   -0.5279 O.3     1  UNL1       -0.3258
     30 O          21.1336   71.6849    2.7828 O.3     1  UNL1       -0.3794
     31 O          20.8449   74.3815    1.8377 O.3     1  UNL1       -0.3794
     32 O          21.6661   69.8256    0.6290 O.3     1  UNL1       -0.3775
     33 C          21.3117   72.0735    1.4180 C.3     1  UNL1        0.1715
     34 C          21.8705   73.4976    1.3939 C.3     1  UNL1        0.1694
     35 C          22.2817   71.1038    0.7454 C.3     1  UNL1        0.1967
     36 C          22.3374   73.8856   -0.0156 C.3     1  UNL1        0.1761
     37 C          22.7212   71.6080   -0.6304 C.3     1  UNL1        0.2704
     38 H          20.5183   72.2963    3.2154 H       1  UNL1        0.2105
     39 H          20.5586   74.1252    2.7285 H       1  UNL1        0.2105
     40 H          21.3927   69.5173    1.5065 H       1  UNL1        0.2106
     41 O          23.5231   75.5125    1.2714 O.3     1  UNL1       -0.3794
     42 C          23.0418   75.2405   -0.0319 C.3     1  UNL1        0.1693
     43 H          23.9741   76.3718    1.2761 H       1  UNL1        0.2105
@<TRIPOS>UNITY_ATOM_ATTR
2 1
charge -1
26 1
charge -1
@<TRIPOS>BOND
     1    25    28    1
     2    25    24    1
     3    25    26    1
     4    25    27    2
     5     1     4    1
     6     1    24    1
     7     1     2    1
     8     1     3    2
     9     6    11    1
    10     6    12    1
    11    29    36    1
    12    29    37    1
    13     7     9    1
    14     7    13    1
    15     8    10    1
    16     8    14    1
    17    28    37    1
    18     4     5    1
    19    30    33    1
    20    30    38    1
    21    31    34    1
    22    31    39    1
    23    32    35    1
    24    32    40    1
    25    41    42    1
    26    41    43    1
    27    15    19    2
    28    16    22    2
    29    17    12    1
    30    17    19   ar
    31    17    20   ar
    32    18    19   ar
    33    18    22   ar
    34    18    23    1
    35     9    10    1
    36     9    11    1
    37    10    12    1
    38    11     5    1
    39    33    34    1
    40    33    35    1
    41    34    36    1
    42    35    37    1
    43    36    42    1
    44    20    21   ar
    45    21    22   ar
@<TRIPOS>MOLECULE
*****
 43 45 0 0 0
SMALL
GASTEIGER

@<TRIPOS>ATOM
      1 P          19.0429   70.4171   -3.3558 P.3     1  UNL1        0.2189
      2 O          18.5659   69.1780   -2.4314 O.co2   1  UNL1       -0.4371
      3 O          18.6530   71.7739   -2.8474 O.2     1  UNL1       -0.5170
      4 O          18.4958   70.0352   -4.8298 O.3     1  UNL1       -0.3112
      5 C          19.0917   70.6579   -5.9545 C.3     1  UNL1        0.1811
      6 O          18.7424   72.9358   -6.6351 O.3     1  UNL1       -0.3308
      7 O          16.4326   71.9039   -8.2448 O.3     1  UNL1       -0.3794
      8 O          18.3800   72.2108  -10.1289 O.3     1  UNL1       -0.3779
      9 C          17.6952   71.2929   -7.9842 C.3     1  UNL1        0.1713
     10 C          18.7822   71.9649   -8.7967 C.3     1  UNL1        0.1895
     11 C          18.1009   71.6439   -6.5582 C.3     1  UNL1        0.1764
     12 C          19.0175   73.2440   -8.0114 C.3     1  UNL1        0.2383
     13 H          16.1524   71.6936   -9.1498 H       1  UNL1        0.2105
     14 H          18.2431   71.3667  -10.5865 H       1  UNL1        0.2106
     15 O          21.2834   71.5648   -8.1659 O.2     1  UNL1       -0.2464
     16 O          24.1558   75.1590   -8.4348 O.2     1  UNL1       -0.2670
     17 N          20.3694   73.7142   -8.1228 N.ar    1  UNL1       -0.2551
     18 N          22.7118   73.3558   -8.2998 N.ar    1  UNL1       -0.2743
     19 C          21.4359   72.7878   -8.1927 C.ar    1  UNL1        0.3323
     20 C          20.6270   75.0802   -8.1620 C.ar    1  UNL1        0.0869
     21 C          21.8496   75.6058   -8.2631 C.ar    1  UNL1        0.0795
     22 C          23.0190   74.7066   -8.3414 C.ar    1  UNL1        0.2626
     23 H          23.4702   72.7297   -8.3496 H       1  UNL1        0.1734
     24 O          20.6365   70.1803   -3.4871 O.3     1  UNL1       -0.2703
     25 P          21.8872   71.0888   -3.0146 P.3     1  UNL1        0.2208
     26 O          21.6624   72.4757   -3.8168 O.co2   1  UNL1       -0.4371
     27 O          23.2289   70.4538   -3.2396 O.2     1  UNL1       -0.5170
     28 O          21.5692   71.4525   -1.4746 O.3     1  UNL1       -0.2858
     29 O          23.1481   72.9349   -0.5122 O.3     1  UNL1       -0.3258
     30 O          21.1763   71.7533    2.9180 O.3     1  UNL1       -0.3794
     31 O          20.7667   74.4029    1.8883 O.3     1  UNL1       -0.3794
     32 O          21.6904   69.8329    0.8139 O.3     1  UNL1       -0.3775
     33 C          21.2923   72.0965    1.5345 C.3     1  UNL1        0.1715
     34 C          21.8036   73.5353    1.4385 C.3     1  UNL1        0.1694
     35 C          22.2682   71.1331    0.8614 C.3     1  UNL1        0.1967
     36 C          22.2065   73.8852   -0.0003 C.3     1  UNL1        0.1761
     37 C          22.6412   71.5993   -0.5470 C.3     1  UNL1        0.2704
     38 H          20.5577   72.3610    3.3512 H       1  UNL1        0.2105
     39 H          20.5213   74.1710    2.7978 H       1  UNL1        0.2105
     40 H          21.4590   69.5491    1.7115 H       1  UNL1        0.2106
     41 O          22.7046   75.7488   -1.4102 O.3     1  UNL1       -0.3794
     42 C          22.8657   75.2597   -0.0915 C.3     1  UNL1        0.1693
     43 H          23.1190   76.6233   -1.4830 H       1  UNL1        0.2105
@<TRIPOS>UNITY_ATOM_ATTR
2 1
charge -1
26 1
charge -1
@<TRIPOS>BOND
     1    25    28    1
     2    25    24    1
     3    25    26    1
     4    25    27    2
     5     1     4    1
     6     1    24    1
     7     1     2    1
     8     1     3    2
     9     6    11    1
    10     6    12    1
    11    29    36    1
    12    29    37    1
    13     7     9    1
    14     7    13    1
    15     8    10    1
    16     8    14    1
    17    28    37    1
    18     4     5    1
    19    30    33    1
    20    30    38    1
    21    31    34    1
    22    31    39    1
    23    32    35    1
    24    32    40    1
    25    41    42    1
    26    41    43    1
    27    15    19    2
    28    16    22    2
    29    17    12    1
    30    17    19   ar
    31    17    20   ar
    32    18    19   ar
    33    18    22   ar
    34    18    23    1
    35     9    10    1
    36     9    11    1
    37    10    12    1
    38    11     5    1
    39    33    34    1
    40    33    35    1
    41    34    36    1
    42    35    37    1
    43    36    42    1
    44    20    21   ar
    45    21    22   ar
@<TRIPOS>MOLECULE
*****
 43 45 0 0 0
SMALL
GASTEIGER

@<TRIPOS>ATOM
      1 P          21.8365   72.9476   -5.1336 P.3     1  UNL1        0.2189
      2 O          21.0092   74.3337   -5.2419 O.co2   1  UNL1       -0.4371
      3 O          23.3282   73.1022   -5.0825 O.2     1  UNL1       -0.5170
      4 O          21.2639   72.0570   -6.3570 O.3     1  UNL1       -0.3112
      5 C          21.1442   72.6596   -7.6339 C.3     1  UNL1        0.1811
      6 O          19.4679   70.9382   -7.6104 O.3     1  UNL1       -0.3308
      7 O          18.6723   71.9362  -10.3237 O.3     1  UNL1       -0.3794
      8 O          16.7796   73.0454   -8.7039 O.3     1  UNL1       -0.3779
      9 C          19.1321   72.6716   -9.1910 C.3     1  UNL1        0.1713
     10 C          18.0434   72.7562   -8.1417 C.3     1  UNL1        0.1895
     11 C          20.1900   71.8328   -8.4848 C.3     1  UNL1        0.1764
     12 C          18.1018   71.3735   -7.5148 C.3     1  UNL1        0.2383
     13 H          17.9960   72.4520  -10.7911 H       1  UNL1        0.2105
     14 H          16.7932   73.9352   -9.0896 H       1  UNL1        0.2106
     15 O          16.7009   69.2776   -6.2411 O.2     1  UNL1       -0.2464
     16 O          16.6520   71.5136   -2.2113 O.2     1  UNL1       -0.2670
     17 N          17.7105   71.3815   -6.1335 N.ar    1  UNL1       -0.2551
     18 N          16.6778   70.3926   -4.2356 N.ar    1  UNL1       -0.2743
     19 C          17.0092   70.2791   -5.5918 C.ar    1  UNL1        0.3323
     20 C          18.0226   72.4736   -5.3311 C.ar    1  UNL1        0.0869
     21 C          17.6982   72.5669   -4.0398 C.ar    1  UNL1        0.0795
     22 C          16.9646   71.4578   -3.3966 C.ar    1  UNL1        0.2626
     23 H          16.1886   69.6367   -3.8366 H       1  UNL1        0.1734
     24 O          21.1888   72.2383   -3.8335 O.3     1  UNL1       -0.2703
     25 P          21.6331   70.9189   -3.0121 P.3     1  UNL1        0.2208
     26 O          23.2318   70.8535   -3.2519 O.co2   1  UNL1       -0.4371
     27 O          20.8963   69.6716   -3.4061 O.2     1  UNL1       -0.5170
     28 O          21.4702   71.3299   -1.4599 O.3     1  UNL1       -0.2858
     29 O          23.2221   72.6743   -0.5995 O.3     1  UNL1       -0.3258
     30 O          21.4416   71.5568    2.9546 O.3     1  UNL1       -0.3794
     31 O          21.1463   74.2516    2.0066 O.3     1  UNL1       -0.3794
     32 O          21.6508   69.6537    0.7835 O.3     1  UNL1       -0.3775
     33 C          21.4747   71.9226    1.5724 C.3     1  UNL1        0.1715
     34 C          22.0798   73.3234    1.4614 C.3     1  UNL1        0.1694
     35 C          22.3231   70.9082    0.8078 C.3     1  UNL1        0.1967
     36 C          22.3943   73.6769    0.0015 C.3     1  UNL1        0.1761
     37 C          22.6187   71.3791   -0.6173 C.3     1  UNL1        0.2704
     38 H          20.9040   72.1966    3.4457 H       1  UNL1        0.2105
     39 H          20.9560   74.0169    2.9285 H       1  UNL1        0.2105
     40 H          21.4697   69.3664    1.6915 H       1  UNL1        0.2106
     41 O          24.4382   74.7441   -0.6251 O.3     1  UNL1       -0.3794
     42 C          23.1422   75.0030   -0.1175 C.3     1  UNL1        0.1693
     43 H          24.9257   75.5792   -0.7065 H       1  UNL1        0.2105
@<TRIPOS>UNITY_ATOM_ATTR
2 1
charge -1
26 1
charge -1
@<TRIPOS>BOND
     1    25    28    1
     2    25    24    1
     3    25    26    1
     4    25    27    2
     5     1     4    1
     6     1    24    1
     7     1     2    1
     8     1     3    2
     9     6    11    1
    10     6    12    1
    11    29    36    1
    12    29    37    1
    13     7     9    1
    14     7    13    1
    15     8    10    1
    16     8    14    1
    17    28    37    1
    18     4     5    1
    19    30    33    1
    20    30    38    1
    21    31    34    1
    22    31    39    1
    23    32    35    1
    24    32    40    1
    25    41    42    1
    26    41    43    1
    27    15    19    2
    28    16    22    2
    29    17    12    1
    30    17    19   ar
    31    17    20   ar
    32    18    19   ar
    33    18    22   ar
    34    18    23    1
    35     9    10    1
    36     9    11    1
    37    10    12    1
    38    11     5    1
    39    33    34    1
    40    33    35    1
    41    34    36    1
    42    35    37    1
    43    36    42    1
    44    20    21   ar
    45    21    22   ar
@<TRIPOS>MOLECULE
*****
 43 45 0 0 0
SMALL
GASTEIGER

@<TRIPOS>ATOM
      1 P          22.1082   73.5933   -5.6280 P.3     1  UNL1        0.2189
      2 O          20.9437   74.2845   -4.7428 O.co2   1  UNL1       -0.4371
      3 O          23.0691   74.5505   -6.2697 O.2     1  UNL1       -0.5170
      4 O          21.3018   72.6226   -6.6407 O.3     1  UNL1       -0.3112
      5 C          21.0636   73.0729   -7.9629 C.3     1  UNL1        0.1811
      6 O          19.7367   71.0828   -7.7339 O.3     1  UNL1       -0.3308
      7 O          18.6622   71.7103  -10.4619 O.3     1  UNL1       -0.3794
      8 O          16.6636   72.5777   -8.8219 O.3     1  UNL1       -0.3779
      9 C          19.0232   72.6011   -9.4076 C.3     1  UNL1        0.1713
     10 C          17.9805   72.5663   -8.3098 C.3     1  UNL1        0.1895
     11 C          20.2453   72.0244   -8.7039 C.3     1  UNL1        0.1764
     12 C          18.3187   71.2690   -7.5951 C.3     1  UNL1        0.2383
     13 H          17.8840   72.0578  -10.9263 H       1  UNL1        0.2105
     14 H          16.4969   73.4232   -9.2670 H       1  UNL1        0.2106
     15 O          18.1037   73.6409   -6.0767 O.2     1  UNL1       -0.2464
     16 O          17.0473   71.3090   -2.2442 O.2     1  UNL1       -0.2670
     17 N          17.9884   71.3109   -6.1984 N.ar    1  UNL1       -0.2551
     18 N          17.5777   72.4779   -4.1697 N.ar    1  UNL1       -0.2743
     19 C          17.9068   72.5542   -5.5290 C.ar    1  UNL1        0.3323
     20 C          17.7490   70.1283   -5.5072 C.ar    1  UNL1        0.0869
     21 C          17.4374   70.0725   -4.2106 C.ar    1  UNL1        0.0795
     22 C          17.3319   71.3270   -3.4378 C.ar    1  UNL1        0.2626
     23 H          17.5156   73.3316   -3.6827 H       1  UNL1        0.1734
     24 O          22.7850   72.5545   -4.5908 O.3     1  UNL1       -0.2703
     25 P          22.1232   71.5414   -3.5192 P.3     1  UNL1        0.2208
     26 O          23.3735   70.6273   -3.0514 O.co2   1  UNL1       -0.4371
     27 O          20.9522   70.7649   -4.0482 O.2     1  UNL1       -0.5170
     28 O          21.7901   72.4634   -2.2370 O.3     1  UNL1       -0.2858
     29 O          21.2708   71.0450   -0.4108 O.3     1  UNL1       -0.3258
     30 O          20.4949   74.6985    1.3500 O.3     1  UNL1       -0.3794
     31 O          22.8336   73.2209    2.1213 O.3     1  UNL1       -0.3794
     32 O          19.7874   74.2519   -1.4212 O.3     1  UNL1       -0.3775
     33 C          21.1813   73.7874    0.4874 C.3     1  UNL1        0.1715
     34 C          21.7737   72.6682    1.3458 C.3     1  UNL1        0.1694
     35 C          20.1915   73.2196   -0.5281 C.3     1  UNL1        0.1967
     36 C          22.2935   71.5173    0.4739 C.3     1  UNL1        0.1761
     37 C          20.7919   72.0486   -1.3082 C.3     1  UNL1        0.2704
     38 H          21.1179   75.0630    1.9969 H       1  UNL1        0.2105
     39 H          22.4922   73.9468    2.6669 H       1  UNL1        0.2105
     40 H          19.4088   74.9871   -0.9153 H       1  UNL1        0.2106
     41 O          22.7932   69.1807    0.4774 O.3     1  UNL1       -0.3794
     42 C          22.7445   70.3231    1.3122 C.3     1  UNL1        0.1693
     43 H          23.0790   68.4129    0.9975 H       1  UNL1        0.2105
@<TRIPOS>UNITY_ATOM_ATTR
2 1
charge -1
26 1
charge -1
@<TRIPOS>BOND
     1    25    28    1
     2    25    24    1
     3    25    26    1
     4    25    27    2
     5     1     4    1
     6     1    24    1
     7     1     2    1
     8     1     3    2
     9     6    11    1
    10     6    12    1
    11    29    36    1
    12    29    37    1
    13     7     9    1
    14     7    13    1
    15     8    10    1
    16     8    14    1
    17    28    37    1
    18     4     5    1
    19    30    33    1
    20    30    38    1
    21    31    34    1
    22    31    39    1
    23    32    35    1
    24    32    40    1
    25    41    42    1
    26    41    43    1
    27    15    19    2
    28    16    22    2
    29    17    12    1
    30    17    19   ar
    31    17    20   ar
    32    18    19   ar
    33    18    22   ar
    34    18    23    1
    35     9    10    1
    36     9    11    1
    37    10    12    1
    38    11     5    1
    39    33    34    1
    40    33    35    1
    41    34    36    1
    42    35    37    1
    43    36    42    1
    44    20    21   ar
    45    21    22   ar
@<TRIPOS>MOLECULE
*****
 43 45 0 0 0
SMALL
GASTEIGER

@<TRIPOS>ATOM
      1 P          21.9139   73.0957   -4.5368 P.3     1  UNL1        0.2189
      2 O          21.5041   74.1402   -3.3713 O.co2   1  UNL1       -0.4371
      3 O          23.3786   73.0478   -4.8588 O.2     1  UNL1       -0.5170
      4 O          20.9364   73.4830   -5.7667 O.3     1  UNL1       -0.3112
      5 C          21.2378   72.9764   -7.0553 C.3     1  UNL1        0.1811
      6 O          19.0844   71.9171   -6.9355 O.3     1  UNL1       -0.3308
      7 O          20.2320   69.8046   -8.7274 O.3     1  UNL1       -0.3794
      8 O          18.7809   71.3301  -10.4606 O.3     1  UNL1       -0.3779
      9 C          20.4743   71.2105   -8.7200 C.3     1  UNL1        0.1713
     10 C          19.2862   71.9519   -9.2966 C.3     1  UNL1        0.1895
     11 C          20.4692   71.6799   -7.2705 C.3     1  UNL1        0.1764
     12 C          18.3013   71.9164   -8.1403 C.3     1  UNL1        0.2383
     13 H          20.2309   69.4816   -9.6427 H       1  UNL1        0.2105
     14 H          19.4438   71.3786  -11.1670 H       1  UNL1        0.2106
     15 O          19.1016   74.5463   -8.7893 O.2     1  UNL1       -0.2464
     16 O          14.8655   76.2104   -8.0636 O.2     1  UNL1       -0.2670
     17 N          17.4280   73.0560   -8.1296 N.ar    1  UNL1       -0.2551
     18 N          16.9917   75.3727   -8.4276 N.ar    1  UNL1       -0.2743
     19 C          17.9299   74.3335   -8.4709 C.ar    1  UNL1        0.3323
     20 C          16.0901   72.9005   -7.7838 C.ar    1  UNL1        0.0869
     21 C          15.2086   73.9019   -7.7461 C.ar    1  UNL1        0.0795
     22 C          15.6518   75.2686   -8.0889 C.ar    1  UNL1        0.2626
     23 H          17.3187   76.2718   -8.6611 H       1  UNL1        0.1734
     24 O          21.2955   71.6992   -4.0072 O.3     1  UNL1       -0.2703
     25 P          21.8084   70.6764   -2.8654 P.3     1  UNL1        0.2208
     26 O          23.4096   70.6383   -3.0935 O.co2   1  UNL1       -0.4371
     27 O          21.1454   69.3299   -2.9025 O.2     1  UNL1       -0.5170
     28 O          21.6131   71.4801   -1.4794 O.3     1  UNL1       -0.2858
     29 O          23.2584   72.8631   -0.4810 O.3     1  UNL1       -0.3258
     30 O          21.2258   71.6962    2.9187 O.3     1  UNL1       -0.3794
     31 O          20.9441   74.3856    1.9511 O.3     1  UNL1       -0.3794
     32 O          21.6528   69.8035    0.7705 O.3     1  UNL1       -0.3775
     33 C          21.3608   72.0658    1.5437 C.3     1  UNL1        0.1715
     34 C          21.9398   73.4806    1.4820 C.3     1  UNL1        0.1694
     35 C          22.2914   71.0733    0.8491 C.3     1  UNL1        0.1967
     36 C          22.3618   73.8447    0.0522 C.3     1  UNL1        0.1761
     37 C          22.6889   71.5542   -0.5476 C.3     1  UNL1        0.2704
     38 H          20.6357   72.3222    3.3654 H       1  UNL1        0.2105
     39 H          20.6861   74.1443    2.8547 H       1  UNL1        0.2105
     40 H          21.4064   69.5099    1.6610 H       1  UNL1        0.2106
     41 O          24.4668   74.9643    0.2084 O.3     1  UNL1       -0.3794
     42 C          23.0854   75.1882   -0.0060 C.3     1  UNL1        0.1693
     43 H          24.9401   75.8107    0.1738 H       1  UNL1        0.2105
@<TRIPOS>UNITY_ATOM_ATTR
2 1
charge -1
26 1
charge -1
@<TRIPOS>BOND
     1    25    28    1
     2    25    24    1
     3    25    26    1
     4    25    27    2
     5     1     4    1
     6     1    24    1
     7     1     2    1
     8     1     3    2
     9     6    11    1
    10     6    12    1
    11    29    36    1
    12    29    37    1
    13     7     9    1
    14     7    13    1
    15     8    10    1
    16     8    14    1
    17    28    37    1
    18     4     5    1
    19    30    33    1
    20    30    38    1
    21    31    34    1
    22    31    39    1
    23    32    35    1
    24    32    40    1
    25    41    42    1
    26    41    43    1
    27    15    19    2
    28    16    22    2
    29    17    12    1
    30    17    19   ar
    31    17    20   ar
    32    18    19   ar
    33    18    22   ar
    34    18    23    1
    35     9    10    1
    36     9    11    1
    37    10    12    1
    38    11     5    1
    39    33    34    1
    40    33    35    1
    41    34    36    1
    42    35    37    1
    43    36    42    1
    44    20    21   ar
    45    21    22   ar
@<TRIPOS>MOLECULE
*****
 43 45 0 0 0
SMALL
GASTEIGER

@<TRIPOS>ATOM
      1 P          18.6386   73.8205   -2.9006 P.3     1  UNL1        0.2189
      2 O          18.7413   75.4024   -3.2235 O.co2   1  UNL1       -0.4371
      3 O          18.2354   73.4855   -1.4946 O.2     1  UNL1       -0.5170
      4 O          20.0675   73.2325   -3.3807 O.3     1  UNL1       -0.3112
      5 C          21.2467   73.7689   -2.8065 C.3     1  UNL1        0.1811
      6 O          23.0014   72.7421   -1.5257 O.3     1  UNL1       -0.3308
      7 O          22.8129   70.4525   -3.4526 O.3     1  UNL1       -0.3794
      8 O          21.4336   69.5250   -1.2907 O.3     1  UNL1       -0.3779
      9 C          21.7754   71.2835   -2.9346 C.3     1  UNL1        0.1713
     10 C          21.4832   70.9226   -1.4930 C.3     1  UNL1        0.1895
     11 C          22.3282   72.6971   -2.8028 C.3     1  UNL1        0.1764
     12 C          22.6428   71.5784   -0.7628 C.3     1  UNL1        0.2383
     13 H          22.4833   69.5444   -3.5459 H       1  UNL1        0.2105
     14 H          20.6794   69.1545   -1.7751 H       1  UNL1        0.2106
     15 O          23.0166   69.9864    1.5402 O.2     1  UNL1       -0.2464
     16 O          21.2596   73.2364    4.2956 O.2     1  UNL1       -0.2670
     17 N          22.2923   71.9838    0.5692 N.ar    1  UNL1       -0.2551
     18 N          22.1416   71.6060    2.9103 N.ar    1  UNL1       -0.2743
     19 C          22.5204   71.1088    1.6568 C.ar    1  UNL1        0.3323
     20 C          21.7295   73.2367    0.7867 C.ar    1  UNL1        0.0869
     21 C          21.3727   73.6954    1.9882 C.ar    1  UNL1        0.0795
     22 C          21.5774   72.8433    3.1774 C.ar    1  UNL1        0.2626
     23 H          22.2907   71.0137    3.6828 H       1  UNL1        0.1734
     24 O          17.6237   73.2824   -4.0379 O.3     1  UNL1       -0.2703
     25 P          16.9798   71.8197   -4.2800 P.3     1  UNL1        0.2208
     26 O          15.4062   72.1360   -4.4830 O.co2   1  UNL1       -0.4371
     27 O          17.2769   70.8287   -3.1921 O.2     1  UNL1       -0.5170
     28 O          17.4997   71.3818   -5.7439 O.3     1  UNL1       -0.2858
     29 O          19.1598   72.8427   -6.5962 O.3     1  UNL1       -0.3258
     30 O          18.3715   70.6713  -10.0189 O.3     1  UNL1       -0.3794
     31 O          20.8403   70.2540   -8.6121 O.3     1  UNL1       -0.3794
     32 O          16.2081   71.3912   -8.2353 O.3     1  UNL1       -0.3775
     33 C          18.5302   70.8740   -8.6121 C.3     1  UNL1        0.1715
     34 C          19.9624   71.3463   -8.3541 C.3     1  UNL1        0.1694
     35 C          17.5250   71.9240   -8.1425 C.3     1  UNL1        0.1967
     36 C          20.1318   71.8386   -6.9105 C.3     1  UNL1        0.1761
     37 C          17.8125   72.3808   -6.7111 C.3     1  UNL1        0.2704
     38 H          19.0065   70.0054  -10.3234 H       1  UNL1        0.2105
     39 H          20.7230   69.9524   -9.5267 H       1  UNL1        0.2105
     40 H          16.0383   71.1060   -9.1461 H       1  UNL1        0.2106
     41 O          22.1727   72.5614   -7.9211 O.3     1  UNL1       -0.3794
     42 C          21.5069   72.4600   -6.6758 C.3     1  UNL1        0.1693
     43 H          23.0493   72.9556   -7.7873 H       1  UNL1        0.2105
@<TRIPOS>UNITY_ATOM_ATTR
2 1
charge -1
26 1
charge -1
@<TRIPOS>BOND
     1    25    28    1
     2    25    24    1
     3    25    26    1
     4    25    27    2
     5     1     4    1
     6     1    24    1
     7     1     2    1
     8     1     3    2
     9     6    11    1
    10     6    12    1
    11    29    36    1
    12    29    37    1
    13     7     9    1
    14     7    13    1
    15     8    10    1
    16     8    14    1
    17    28    37    1
    18     4     5    1
    19    30    33    1
    20    30    38    1
    21    31    34    1
    22    31    39    1
    23    32    35    1
    24    32    40    1
    25    41    42    1
    26    41    43    1
    27    15    19    2
    28    16    22    2
    29    17    12    1
    30    17    19   ar
    31    17    20   ar
    32    18    19   ar
    33    18    22   ar
    34    18    23    1
    35     9    10    1
    36     9    11    1
    37    10    12    1
    38    11     5    1
    39    33    34    1
    40    33    35    1
    41    34    36    1
    42    35    37    1
    43    36    42    1
    44    20    21   ar
    45    21    22   ar
