@<TRIPOS>MOLECULE
*****
 43 45 0 0 0
SMALL
GASTEIGER

@<TRIPOS>ATOM
      1 P          22.9666   71.6721   -2.6648 P.3     1  UNL1        0.2189
      2 O          23.7905   72.9855   -3.1269 O.co2   1  UNL1       -0.4371
      3 O          23.4684   70.3770   -3.2323 O.2     1  UNL1       -0.5170
      4 O          21.4280   72.0392   -3.0051 O.3     1  UNL1       -0.3112
      5 C          20.5957   71.0284   -3.5469 C.3     1  UNL1        0.1811
      6 O          18.7268   72.0137   -4.6916 O.3     1  UNL1       -0.3308
      7 O          17.0207   70.8457   -2.5200 O.3     1  UNL1       -0.3794
      8 O          16.6554   69.0883   -4.5729 O.3     1  UNL1       -0.3779
      9 C          18.1903   70.3087   -3.1356 C.3     1  UNL1        0.1713
     10 C          17.8693   69.8103   -4.5292 C.3     1  UNL1        0.1895
     11 C          19.1420   71.4635   -3.4222 C.3     1  UNL1        0.1764
     12 C          17.8079   71.1056   -5.3208 C.3     1  UNL1        0.2383
     13 H          16.3980   70.1267   -2.3271 H       1  UNL1        0.2105
     14 H          16.7450   68.2732   -4.0550 H       1  UNL1        0.2106
     15 O          16.0295   70.4050   -7.4002 O.2     1  UNL1       -0.2464
     16 O          19.3987   70.4503  -10.5447 O.2     1  UNL1       -0.2670
     17 N          18.1934   70.9281   -6.6924 N.ar    1  UNL1       -0.2551
     18 N          17.7085   70.4283   -8.9643 N.ar    1  UNL1       -0.2743
     19 C          17.2228   70.5751   -7.6587 C.ar    1  UNL1        0.3323
     20 C          19.5209   71.1041   -7.0675 C.ar    1  UNL1        0.0869
     21 C          19.9681   70.9590   -8.3165 C.ar    1  UNL1        0.0795
     22 C          19.0184   70.5912   -9.3865 C.ar    1  UNL1        0.2626
     23 H          17.0504   70.1823   -9.6543 H       1  UNL1        0.1734
     24 O          23.0134   71.7627   -1.0515 O.3     1  UNL1       -0.2703
     25 P          22.4723   70.7483    0.0848 P.3     1  UNL1        0.2208
     26 O          23.6582   69.6538    0.2002 O.co2   1  UNL1       -0.4371
     27 O          21.1187   70.1665   -0.2037 O.2     1  UNL1       -0.5170
     28 O          22.5594   71.5902    1.4590 O.3     1  UNL1       -0.2858
     29 O          21.4982   72.3541    3.4356 O.3     1  UNL1       -0.3258
     30 O          21.2565   75.8051    1.1810 O.3     1  UNL1       -0.3794
     31 O          23.0996   75.6740    3.3797 O.3     1  UNL1       -0.3794
     32 O          20.8779   73.2271   -0.0799 O.3     1  UNL1       -0.3775
     33 C          21.8546   74.5925    1.6472 C.3     1  UNL1        0.1715
     34 C          22.0705   74.7138    3.1570 C.3     1  UNL1        0.1694
     35 C          20.9248   73.4230    1.3293 C.3     1  UNL1        0.1967
     36 C          22.4587   73.3622    3.7714 C.3     1  UNL1        0.1761
     37 C          21.3735   72.1385    2.0285 C.3     1  UNL1        0.2704
     38 H          21.8421   76.5516    1.3793 H       1  UNL1        0.2105
     39 H          22.8422   76.5227    2.9864 H       1  UNL1        0.2105
     40 H          20.5922   74.0471   -0.5109 H       1  UNL1        0.2106
     41 O          21.2539   73.0810    5.8155 O.3     1  UNL1       -0.3794
     42 C          22.5251   73.4250    5.2958 C.3     1  UNL1        0.1693
     43 H          21.2812   73.1163    6.7849 H       1  UNL1        0.2105
@<TRIPOS>UNITY_ATOM_ATTR
2 1
charge -1
26 1
charge -1
@<TRIPOS>BOND
     1    25    28    1
     2    25    24    1
     3    25    26    1
     4    25    27    2
     5     1     4    1
     6     1    24    1
     7     1     2    1
     8     1     3    2
     9     6    11    1
    10     6    12    1
    11    29    36    1
    12    29    37    1
    13     7     9    1
    14     7    13    1
    15     8    10    1
    16     8    14    1
    17    28    37    1
    18     4     5    1
    19    30    33    1
    20    30    38    1
    21    31    34    1
    22    31    39    1
    23    32    35    1
    24    32    40    1
    25    41    42    1
    26    41    43    1
    27    15    19    2
    28    16    22    2
    29    17    12    1
    30    17    19   ar
    31    17    20   ar
    32    18    19   ar
    33    18    22   ar
    34    18    23    1
    35     9    10    1
    36     9    11    1
    37    10    12    1
    38    11     5    1
    39    33    34    1
    40    33    35    1
    41    34    36    1
    42    35    37    1
    43    36    42    1
    44    20    21   ar
    45    21    22   ar
@<TRIPOS>MOLECULE
*****
 43 45 0 0 0
SMALL
GASTEIGER

@<TRIPOS>ATOM
      1 P          22.8243   71.7748   -2.2813 P.3     1  UNL1        0.2189
      2 O          23.4944   73.2417   -2.4101 O.co2   1  UNL1       -0.4371
      3 O          23.3985   70.7332   -3.1960 O.2     1  UNL1       -0.5170
      4 O          21.2393   72.0562   -2.4442 O.3     1  UNL1       -0.3112
      5 C          20.5488   71.4352   -3.5145 C.3     1  UNL1        0.1811
      6 O          18.6066   72.2282   -4.6861 O.3     1  UNL1       -0.3308
      7 O          17.0003   71.0020   -2.4709 O.3     1  UNL1       -0.3794
      8 O          16.7761   69.1521   -4.4619 O.3     1  UNL1       -0.3779
      9 C          18.2089   70.5397   -3.0716 C.3     1  UNL1        0.1713
     10 C          17.9283   69.9700   -4.4465 C.3     1  UNL1        0.1895
     11 C          19.0650   71.7565   -3.4001 C.3     1  UNL1        0.1764
     12 C          17.7632   71.2285   -5.2813 C.3     1  UNL1        0.2383
     13 H          16.4372   70.2425   -2.2518 H       1  UNL1        0.2105
     14 H          16.9309   68.3649   -3.9169 H       1  UNL1        0.2106
     15 O          16.0365   70.3532   -7.3380 O.2     1  UNL1       -0.2464
     16 O          19.3999   70.5233  -10.4845 O.2     1  UNL1       -0.2670
     17 N          18.1611   71.0358   -6.6473 N.ar    1  UNL1       -0.2551
     18 N          17.7126   70.4388   -8.9031 N.ar    1  UNL1       -0.2743
     19 C          17.2166   70.5924   -7.6021 C.ar    1  UNL1        0.3323
     20 C          19.4749   71.2861   -7.0282 C.ar    1  UNL1        0.0869
     21 C          19.9323   71.1335   -8.2727 C.ar    1  UNL1        0.0795
     22 C          19.0098   70.6735   -9.3307 C.ar    1  UNL1        0.2626
     23 H          17.0727   70.1304   -9.5851 H       1  UNL1        0.1734
     24 O          22.9745   71.4436   -0.7063 O.3     1  UNL1       -0.2703
     25 P          22.0459   70.5708    0.2882 P.3     1  UNL1        0.2208
     26 O          23.1144   69.9042    1.3038 O.co2   1  UNL1       -0.4371
     27 O          21.1554   69.5837   -0.4094 O.2     1  UNL1       -0.5170
     28 O          21.2627   71.6642    1.1804 O.3     1  UNL1       -0.2858
     29 O          21.6565   74.0011    1.1979 O.3     1  UNL1       -0.3258
     30 O          20.3874   73.5167    5.0973 O.3     1  UNL1       -0.3794
     31 O          18.6626   74.8015    3.1940 O.3     1  UNL1       -0.3794
     32 O          22.0656   71.5058    3.8647 O.3     1  UNL1       -0.3775
     33 C          20.4127   73.2493    3.6926 C.3     1  UNL1        0.1715
     34 C          20.0416   74.5360    2.9527 C.3     1  UNL1        0.1694
     35 C          21.8141   72.7871    3.2976 C.3     1  UNL1        0.1967
     36 C          20.3048   74.4045    1.4465 C.3     1  UNL1        0.1761
     37 C          21.9852   72.7374    1.7783 C.3     1  UNL1        0.2704
     38 H          19.5002   73.8102    5.3547 H       1  UNL1        0.2105
     39 H          18.5098   74.8818    4.1487 H       1  UNL1        0.2105
     40 H          21.9544   71.5506    4.8267 H       1  UNL1        0.2106
     41 O          21.0064   76.6774    1.2218 O.3     1  UNL1       -0.3794
     42 C          20.0911   75.7257    0.7111 C.3     1  UNL1        0.1693
     43 H          20.8822   77.5233    0.7627 H       1  UNL1        0.2105
@<TRIPOS>UNITY_ATOM_ATTR
2 1
charge -1
26 1
charge -1
@<TRIPOS>BOND
     1    25    28    1
     2    25    24    1
     3    25    26    1
     4    25    27    2
     5     1     4    1
     6     1    24    1
     7     1     2    1
     8     1     3    2
     9     6    11    1
    10     6    12    1
    11    29    36    1
    12    29    37    1
    13     7     9    1
    14     7    13    1
    15     8    10    1
    16     8    14    1
    17    28    37    1
    18     4     5    1
    19    30    33    1
    20    30    38    1
    21    31    34    1
    22    31    39    1
    23    32    35    1
    24    32    40    1
    25    41    42    1
    26    41    43    1
    27    15    19    2
    28    16    22    2
    29    17    12    1
    30    17    19   ar
    31    17    20   ar
    32    18    19   ar
    33    18    22   ar
    34    18    23    1
    35     9    10    1
    36     9    11    1
    37    10    12    1
    38    11     5    1
    39    33    34    1
    40    33    35    1
    41    34    36    1
    42    35    37    1
    43    36    42    1
    44    20    21   ar
    45    21    22   ar
@<TRIPOS>MOLECULE
*****
 43 45 0 0 0
SMALL
GASTEIGER

@<TRIPOS>ATOM
      1 P          21.3122   70.0757   -2.3633 P.3     1  UNL1        0.2189
      2 O          22.6370   70.6081   -3.1242 O.co2   1  UNL1       -0.4371
      3 O          20.6162   68.9267   -3.0316 O.2     1  UNL1       -0.5170
      4 O          20.4220   71.4104   -2.1534 O.3     1  UNL1       -0.3112
      5 C          19.9939   72.1247   -3.2998 C.3     1  UNL1        0.1811
      6 O          18.0351   72.6524   -4.5877 O.3     1  UNL1       -0.3308
      7 O          16.4837   71.1897   -2.4795 O.3     1  UNL1       -0.3794
      8 O          16.6423   69.3490   -4.4852 O.3     1  UNL1       -0.3779
      9 C          17.7795   70.9071   -3.0052 C.3     1  UNL1        0.1713
     10 C          17.6657   70.3192   -4.3963 C.3     1  UNL1        0.1895
     11 C          18.4755   72.2349   -3.2769 C.3     1  UNL1        0.1764
     12 C          17.3776   71.5517   -5.2366 C.3     1  UNL1        0.2383
     13 H          16.0199   70.3567   -2.2977 H       1  UNL1        0.2105
     14 H          16.8720   68.5849   -3.9336 H       1  UNL1        0.2106
     15 O          15.9767   72.3720   -7.5479 O.2     1  UNL1       -0.2464
     16 O          19.4074   71.0407  -10.3226 O.2     1  UNL1       -0.2670
     17 N          17.8812   71.4315   -6.5757 N.ar    1  UNL1       -0.2551
     18 N          17.6861   71.7086   -8.9276 N.ar    1  UNL1       -0.2743
     19 C          17.0976   71.8731   -7.6672 C.ar    1  UNL1        0.3323
     20 C          19.1392   70.8812   -6.7962 C.ar    1  UNL1        0.0869
     21 C          19.6855   70.7302   -8.0045 C.ar    1  UNL1        0.0795
     22 C          18.9324   71.1662   -9.1981 C.ar    1  UNL1        0.2626
     23 H          17.1584   72.0088   -9.7030 H       1  UNL1        0.1734
     24 O          21.8514   69.7604   -0.8724 O.3     1  UNL1       -0.2703
     25 P          22.2092   70.7463    0.3576 P.3     1  UNL1        0.2208
     26 O          23.3072   69.9070    1.1986 O.co2   1  UNL1       -0.4371
     27 O          21.0189   71.1865    1.1598 O.2     1  UNL1       -0.5170
     28 O          23.0453   71.9519   -0.3150 O.3     1  UNL1       -0.2858
     29 O          22.2679   73.9490    0.6970 O.3     1  UNL1       -0.3258
     30 O          24.9881   75.5683   -1.9543 O.3     1  UNL1       -0.3794
     31 O          25.5949   75.5288    0.8525 O.3     1  UNL1       -0.3794
     32 O          23.3654   73.3075   -2.7512 O.3     1  UNL1       -0.3775
     33 C          24.4806   74.5891   -1.0438 C.3     1  UNL1        0.1715
     34 C          24.3012   75.2526    0.3231 C.3     1  UNL1        0.1694
     35 C          23.1441   74.0662   -1.5671 C.3     1  UNL1        0.1967
     36 C          23.5145   74.3465    1.2797 C.3     1  UNL1        0.1761
     37 C          22.4211   73.2166   -0.5205 C.3     1  UNL1        0.2704
     38 H          25.8369   75.9040   -1.6281 H       1  UNL1        0.2105
     39 H          26.0813   76.1013    0.2387 H       1  UNL1        0.2105
     40 H          23.8234   73.8565   -3.4060 H       1  UNL1        0.2106
     41 O          23.2607   76.4487    2.3867 O.3     1  UNL1       -0.3794
     42 C          23.1877   75.0503    2.5950 C.3     1  UNL1        0.1693
     43 H          23.0547   76.9097    3.2154 H       1  UNL1        0.2105
@<TRIPOS>UNITY_ATOM_ATTR
2 1
charge -1
26 1
charge -1
@<TRIPOS>BOND
     1    25    28    1
     2    25    24    1
     3    25    26    1
     4    25    27    2
     5     1     4    1
     6     1    24    1
     7     1     2    1
     8     1     3    2
     9     6    11    1
    10     6    12    1
    11    29    36    1
    12    29    37    1
    13     7     9    1
    14     7    13    1
    15     8    10    1
    16     8    14    1
    17    28    37    1
    18     4     5    1
    19    30    33    1
    20    30    38    1
    21    31    34    1
    22    31    39    1
    23    32    35    1
    24    32    40    1
    25    41    42    1
    26    41    43    1
    27    15    19    2
    28    16    22    2
    29    17    12    1
    30    17    19   ar
    31    17    20   ar
    32    18    19   ar
    33    18    22   ar
    34    18    23    1
    35     9    10    1
    36     9    11    1
    37    10    12    1
    38    11     5    1
    39    33    34    1
    40    33    35    1
    41    34    36    1
    42    35    37    1
    43    36    42    1
    44    20    21   ar
    45    21    22   ar
@<TRIPOS>MOLECULE
*****
 43 45 0 0 0
SMALL
GASTEIGER

@<TRIPOS>ATOM
      1 P          21.7505   74.0776   -6.1721 P.3     1  UNL1        0.2189
      2 O          20.9106   75.3724   -5.6869 O.co2   1  UNL1       -0.4371
      3 O          23.0853   74.3817   -6.7863 O.2     1  UNL1       -0.5170
      4 O          20.7111   73.2710   -7.1139 O.3     1  UNL1       -0.3112
      5 C          21.2301   72.4565   -8.1507 C.3     1  UNL1        0.1811
      6 O          19.5688   70.7338   -8.3660 O.3     1  UNL1       -0.3308
      7 O          18.1563   72.5914  -10.2487 O.3     1  UNL1       -0.3794
      8 O          16.7474   72.9056   -7.9351 O.3     1  UNL1       -0.3779
      9 C          18.8982   72.8953   -9.0687 C.3     1  UNL1        0.1713
     10 C          18.1029   72.5190   -7.8361 C.3     1  UNL1        0.1895
     11 C          20.0760   71.9317   -8.9938 C.3     1  UNL1        0.1764
     12 C          18.2793   71.0106   -7.7957 C.3     1  UNL1        0.2383
     13 H          17.3989   73.1943  -10.3185 H       1  UNL1        0.2105
     14 H          16.6878   73.8734   -7.9574 H       1  UNL1        0.2106
     15 O          16.1061   69.5716   -6.7073 O.2     1  UNL1       -0.2464
     16 O          18.2366   69.0632   -2.6522 O.2     1  UNL1       -0.2670
     17 N          18.2395   70.4901   -6.4582 N.ar    1  UNL1       -0.2551
     18 N          17.1688   69.3195   -4.6891 N.ar    1  UNL1       -0.2743
     19 C          17.1001   69.7825   -6.0093 C.ar    1  UNL1        0.3323
     20 C          19.3222   70.6829   -5.6071 C.ar    1  UNL1        0.0869
     21 C          19.3715   70.2361   -4.3504 C.ar    1  UNL1        0.0795
     22 C          18.2218   69.4869   -3.8038 C.ar    1  UNL1        0.2626
     23 H          16.3862   68.8240   -4.3546 H       1  UNL1        0.1734
     24 O          21.8154   73.1659   -4.8388 O.3     1  UNL1       -0.2703
     25 P          22.9680   73.0067   -3.7168 P.3     1  UNL1        0.2208
     26 O          23.9650   74.2415   -4.0313 O.co2   1  UNL1       -0.4371
     27 O          23.6335   71.6610   -3.7048 O.2     1  UNL1       -0.5170
     28 O          22.2465   73.4084   -2.3301 O.3     1  UNL1       -0.2858
     29 O          21.6329   71.3939   -1.2431 O.3     1  UNL1       -0.3258
     30 O          20.0193   74.1011    1.4249 O.3     1  UNL1       -0.3794
     31 O          22.3808   72.6346    2.1466 O.3     1  UNL1       -0.3794
     32 O          19.8859   74.6223   -1.4194 O.3     1  UNL1       -0.3775
     33 C          20.9758   73.6166    0.4785 C.3     1  UNL1        0.1715
     34 C          21.5691   72.3145    1.0201 C.3     1  UNL1        0.1694
     35 C          20.2769   73.3740   -0.8579 C.3     1  UNL1        0.1967
     36 C          22.4012   71.5970   -0.0514 C.3     1  UNL1        0.1761
     37 C          21.1741   72.6112   -1.8343 C.3     1  UNL1        0.2704
     38 H          20.4568   74.2577    2.2756 H       1  UNL1        0.2105
     39 H          21.8435   73.0876    2.8155 H       1  UNL1        0.2105
     40 H          19.3181   75.0953   -0.7919 H       1  UNL1        0.2106
     41 O          21.7330   69.4196    0.6707 O.3     1  UNL1       -0.3794
     42 C          22.8717   70.2214    0.4160 C.3     1  UNL1        0.1693
     43 H          22.0171   68.5409    0.9687 H       1  UNL1        0.2105
@<TRIPOS>UNITY_ATOM_ATTR
2 1
charge -1
26 1
charge -1
@<TRIPOS>BOND
     1    25    28    1
     2    25    24    1
     3    25    26    1
     4    25    27    2
     5     1     4    1
     6     1    24    1
     7     1     2    1
     8     1     3    2
     9     6    11    1
    10     6    12    1
    11    29    36    1
    12    29    37    1
    13     7     9    1
    14     7    13    1
    15     8    10    1
    16     8    14    1
    17    28    37    1
    18     4     5    1
    19    30    33    1
    20    30    38    1
    21    31    34    1
    22    31    39    1
    23    32    35    1
    24    32    40    1
    25    41    42    1
    26    41    43    1
    27    15    19    2
    28    16    22    2
    29    17    12    1
    30    17    19   ar
    31    17    20   ar
    32    18    19   ar
    33    18    22   ar
    34    18    23    1
    35     9    10    1
    36     9    11    1
    37    10    12    1
    38    11     5    1
    39    33    34    1
    40    33    35    1
    41    34    36    1
    42    35    37    1
    43    36    42    1
    44    20    21   ar
    45    21    22   ar
@<TRIPOS>MOLECULE
*****
 43 45 0 0 0
SMALL
GASTEIGER

@<TRIPOS>ATOM
      1 P          23.0268   72.0614   -3.1878 P.3     1  UNL1        0.2189
      2 O          23.6791   72.9487   -4.3730 O.co2   1  UNL1       -0.4371
      3 O          23.5079   70.6417   -3.1207 O.2     1  UNL1       -0.5170
      4 O          21.4332   72.2543   -3.3903 O.3     1  UNL1       -0.3112
      5 C          20.6242   71.0990   -3.5270 C.3     1  UNL1        0.1811
      6 O          18.7247   72.0381   -4.6601 O.3     1  UNL1       -0.3308
      7 O          17.0615   70.8321   -2.4761 O.3     1  UNL1       -0.3794
      8 O          16.7246   69.0642   -4.5250 O.3     1  UNL1       -0.3779
      9 C          18.2395   70.3225   -3.0990 C.3     1  UNL1        0.1713
     10 C          17.9212   69.8150   -4.4900 C.3     1  UNL1        0.1895
     11 C          19.1614   71.4994   -3.3930 C.3     1  UNL1        0.1764
     12 C          17.8237   71.1076   -5.2823 C.3     1  UNL1        0.2383
     13 H          16.4574   70.0986   -2.2784 H       1  UNL1        0.2105
     14 H          16.8372   68.2520   -4.0069 H       1  UNL1        0.2106
     15 O          16.0460   70.3758   -7.3517 O.2     1  UNL1       -0.2464
     16 O          19.3951   70.4841  -10.5160 O.2     1  UNL1       -0.2670
     17 N          18.2042   70.9379   -6.6563 N.ar    1  UNL1       -0.2551
     18 N          17.7150   70.4305   -8.9256 N.ar    1  UNL1       -0.2743
     19 C          17.2344   70.5678   -7.6171 C.ar    1  UNL1        0.3323
     20 C          19.5260   71.1382   -7.0392 C.ar    1  UNL1        0.0869
     21 C          19.9684   71.0020   -8.2910 C.ar    1  UNL1        0.0795
     22 C          19.0192   70.6174   -9.3555 C.ar    1  UNL1        0.2626
     23 H          17.0574   70.1729   -9.6119 H       1  UNL1        0.1734
     24 O          23.3340   72.9390   -1.8656 O.3     1  UNL1       -0.2703
     25 P          22.3771   73.3846   -0.6413 P.3     1  UNL1        0.2208
     26 O          21.9161   71.9734    0.0019 O.co2   1  UNL1       -0.4371
     27 O          21.2426   74.2824   -1.0422 O.2     1  UNL1       -0.5170
     28 O          23.3806   74.0217    0.4505 O.3     1  UNL1       -0.2858
     29 O          22.2657   74.6047    2.4589 O.3     1  UNL1       -0.3258
     30 O          25.9038   76.4231    3.1720 O.3     1  UNL1       -0.3794
     31 O          25.2025   74.0408    4.6144 O.3     1  UNL1       -0.3794
     32 O          24.7683   76.4601    0.5095 O.3     1  UNL1       -0.3775
     33 C          25.0303   75.4120    2.6622 C.3     1  UNL1        0.1715
     34 C          24.2736   74.7938    3.8395 C.3     1  UNL1        0.1694
     35 C          24.0566   76.0468    1.6710 C.3     1  UNL1        0.1967
     36 C          23.1306   73.8933    3.3520 C.3     1  UNL1        0.1761
     37 C          22.9316   75.0833    1.2887 C.3     1  UNL1        0.2704
     38 H          26.5249   76.0266    3.8016 H       1  UNL1        0.2105
     39 H          25.9193   74.6209    4.9157 H       1  UNL1        0.2105
     40 H          25.4774   77.0698    0.7649 H       1  UNL1        0.2106
     41 O          21.9703   72.0251    4.2860 O.3     1  UNL1       -0.3794
     42 C          22.2653   73.3921    4.5062 C.3     1  UNL1        0.1693
     43 H          21.4203   71.6924    5.0130 H       1  UNL1        0.2105
@<TRIPOS>UNITY_ATOM_ATTR
2 1
charge -1
26 1
charge -1
@<TRIPOS>BOND
     1    25    28    1
     2    25    24    1
     3    25    26    1
     4    25    27    2
     5     1     4    1
     6     1    24    1
     7     1     2    1
     8     1     3    2
     9     6    11    1
    10     6    12    1
    11    29    36    1
    12    29    37    1
    13     7     9    1
    14     7    13    1
    15     8    10    1
    16     8    14    1
    17    28    37    1
    18     4     5    1
    19    30    33    1
    20    30    38    1
    21    31    34    1
    22    31    39    1
    23    32    35    1
    24    32    40    1
    25    41    42    1
    26    41    43    1
    27    15    19    2
    28    16    22    2
    29    17    12    1
    30    17    19   ar
    31    17    20   ar
    32    18    19   ar
    33    18    22   ar
    34    18    23    1
    35     9    10    1
    36     9    11    1
    37    10    12    1
    38    11     5    1
    39    33    34    1
    40    33    35    1
    41    34    36    1
    42    35    37    1
    43    36    42    1
    44    20    21   ar
    45    21    22   ar
@<TRIPOS>MOLECULE
*****
 43 45 0 0 0
SMALL
GASTEIGER

@<TRIPOS>ATOM
      1 P          21.5988   70.5272   -1.0996 P.3     1  UNL1        0.2189
      2 O          23.1487   70.6495   -1.5471 O.co2   1  UNL1       -0.4371
      3 O          21.3647   69.7682    0.1734 O.2     1  UNL1       -0.5170
      4 O          20.8603   69.9398   -2.4139 O.3     1  UNL1       -0.3112
      5 C          20.5930   70.8218   -3.4903 C.3     1  UNL1        0.1811
      6 O          18.7895   71.9233   -4.6338 O.3     1  UNL1       -0.3308
      7 O          17.0041   70.8123   -2.4964 O.3     1  UNL1       -0.3794
      8 O          16.5652   69.1104   -4.5814 O.3     1  UNL1       -0.3779
      9 C          18.1492   70.2241   -3.1111 C.3     1  UNL1        0.1713
     10 C          17.8151   69.7661   -4.5155 C.3     1  UNL1        0.1895
     11 C          19.1633   71.3313   -3.3704 C.3     1  UNL1        0.1764
     12 C          17.8297   71.0756   -5.2858 C.3     1  UNL1        0.2383
     13 H          16.3424   70.1243   -2.3208 H       1  UNL1        0.2105
     14 H          16.6068   68.2833   -4.0765 H       1  UNL1        0.2106
     15 O          16.0393   70.4792   -7.3873 O.2     1  UNL1       -0.2464
     16 O          19.4316   70.4230  -10.5067 O.2     1  UNL1       -0.2670
     17 N          18.2179   70.9001   -6.6569 N.ar    1  UNL1       -0.2551
     18 N          17.7298   70.4519   -8.9388 N.ar    1  UNL1       -0.2743
     19 C          17.2406   70.6018   -7.6349 C.ar    1  UNL1        0.3323
     20 C          19.5545   71.0244   -7.0201 C.ar    1  UNL1        0.0869
     21 C          20.0048   70.8772   -8.2677 C.ar    1  UNL1        0.0795
     22 C          19.0487   70.5645   -9.3494 C.ar    1  UNL1        0.2626
     23 H          17.0672   70.2434   -9.6369 H       1  UNL1        0.1734
     24 O          21.1080   72.0670   -1.0647 O.3     1  UNL1       -0.2703
     25 P          21.8392   73.4022   -0.5211 P.3     1  UNL1        0.2208
     26 O          21.2088   74.5722   -1.4437 O.co2   1  UNL1       -0.4371
     27 O          23.3388   73.3354   -0.5445 O.2     1  UNL1       -0.5170
     28 O          21.2034   73.6494    0.9416 O.3     1  UNL1       -0.2858
     29 O          21.3095   75.3263    2.6130 O.3     1  UNL1       -0.3258
     30 O          21.9285   71.9980    4.9774 O.3     1  UNL1       -0.3794
     31 O          19.4184   73.3869    5.1133 O.3     1  UNL1       -0.3794
     32 O          23.1083   72.1334    2.3375 O.3     1  UNL1       -0.3775
     33 C          21.3676   72.7369    3.8889 C.3     1  UNL1        0.1715
     34 C          20.5739   73.9112    4.4650 C.3     1  UNL1        0.1694
     35 C          22.4974   73.2400    2.9924 C.3     1  UNL1        0.1967
     36 C          20.1666   74.8984    3.3629 C.3     1  UNL1        0.1761
     37 C          21.9932   74.2530    1.9630 C.3     1  UNL1        0.2704
     38 H          21.2163   71.6753    5.5502 H       1  UNL1        0.2105
     39 H          19.6894   72.7647    5.8065 H       1  UNL1        0.2105
     40 H          23.4235   71.4996    2.9998 H       1  UNL1        0.2106
     41 O          20.5290   77.0077    4.4252 O.3     1  UNL1       -0.3794
     42 C          19.5118   76.1545    3.9336 C.3     1  UNL1        0.1693
     43 H          20.1270   77.8115    4.7912 H       1  UNL1        0.2105
@<TRIPOS>UNITY_ATOM_ATTR
2 1
charge -1
26 1
charge -1
@<TRIPOS>BOND
     1    25    28    1
     2    25    24    1
     3    25    26    1
     4    25    27    2
     5     1     4    1
     6     1    24    1
     7     1     2    1
     8     1     3    2
     9     6    11    1
    10     6    12    1
    11    29    36    1
    12    29    37    1
    13     7     9    1
    14     7    13    1
    15     8    10    1
    16     8    14    1
    17    28    37    1
    18     4     5    1
    19    30    33    1
    20    30    38    1
    21    31    34    1
    22    31    39    1
    23    32    35    1
    24    32    40    1
    25    41    42    1
    26    41    43    1
    27    15    19    2
    28    16    22    2
    29    17    12    1
    30    17    19   ar
    31    17    20   ar
    32    18    19   ar
    33    18    22   ar
    34    18    23    1
    35     9    10    1
    36     9    11    1
    37    10    12    1
    38    11     5    1
    39    33    34    1
    40    33    35    1
    41    34    36    1
    42    35    37    1
    43    36    42    1
    44    20    21   ar
    45    21    22   ar
@<TRIPOS>MOLECULE
*****
 43 45 0 0 0
SMALL
GASTEIGER

@<TRIPOS>ATOM
      1 P          22.6890   72.6059   -4.0199 P.3     1  UNL1        0.2189
      2 O          22.9681   72.7949   -5.6022 O.co2   1  UNL1       -0.4371
      3 O          23.3838   71.4350   -3.3892 O.2     1  UNL1       -0.5170
      4 O          21.0749   72.6093   -3.9070 O.3     1  UNL1       -0.3112
      5 C          20.4301   71.4532   -3.4015 C.3     1  UNL1        0.1811
      6 O          18.4838   72.2872   -4.5373 O.3     1  UNL1       -0.3308
      7 O          16.8805   70.8566   -2.4458 O.3     1  UNL1       -0.3794
      8 O          16.7279   69.1601   -4.5754 O.3     1  UNL1       -0.3779
      9 C          18.1078   70.4708   -3.0624 C.3     1  UNL1        0.1713
     10 C          17.8590   70.0017   -4.4807 C.3     1  UNL1        0.1895
     11 C          18.9374   71.7293   -3.2845 C.3     1  UNL1        0.1764
     12 C          17.6732   71.3163   -5.2193 C.3     1  UNL1        0.2383
     13 H          16.3338   70.0693   -2.2937 H       1  UNL1        0.2105
     14 H          16.8953   68.3373   -4.0900 H       1  UNL1        0.2106
     15 O          16.0614   72.0334   -7.4252 O.2     1  UNL1       -0.2464
     16 O          19.3886   70.9753  -10.4337 O.2     1  UNL1       -0.2670
     17 N          18.0931   71.2385   -6.5901 N.ar    1  UNL1       -0.2551
     18 N          17.7195   71.5062   -8.9214 N.ar    1  UNL1       -0.2743
     19 C          17.2064   71.6218   -7.6232 C.ar    1  UNL1        0.3323
     20 C          19.3715   70.7865   -6.8986 C.ar    1  UNL1        0.0869
     21 C          19.8451   70.6808   -8.1419 C.ar    1  UNL1        0.0795
     22 C          18.9823   71.0612   -9.2790 C.ar    1  UNL1        0.2626
     23 H          17.1194   71.7672   -9.6573 H       1  UNL1        0.1734
     24 O          23.0993   74.0431   -3.4042 O.3     1  UNL1       -0.2703
     25 P          24.0778   75.1994   -3.9684 P.3     1  UNL1        0.2208
     26 O          25.5038   74.4468   -4.1006 O.co2   1  UNL1       -0.4371
     27 O          24.1095   76.4430   -3.1279 O.2     1  UNL1       -0.5170
     28 O          23.5977   75.4336   -5.4915 O.3     1  UNL1       -0.2858
     29 O          23.3519   77.5379   -6.5535 O.3     1  UNL1       -0.3258
     30 O          20.4759   75.4156   -8.6210 O.3     1  UNL1       -0.3794
     31 O          22.9292   76.1280   -9.9332 O.3     1  UNL1       -0.3794
     32 O          20.8474   74.9602   -5.7866 O.3     1  UNL1       -0.3775
     33 C          21.7189   75.6012   -7.9385 C.3     1  UNL1        0.1715
     34 C          22.5189   76.6727   -8.6821 C.3     1  UNL1        0.1694
     35 C          21.4391   76.0392   -6.5021 C.3     1  UNL1        0.1967
     36 C          23.7404   77.1176   -7.8666 C.3     1  UNL1        0.1761
     37 C          22.7127   76.5083   -5.7964 C.3     1  UNL1        0.2704
     38 H          20.6464   75.1369   -9.5336 H       1  UNL1        0.2105
     39 H          22.1486   75.8505  -10.4380 H       1  UNL1        0.2105
     40 H          20.0420   74.6726   -6.2432 H       1  UNL1        0.2106
     41 O          23.6254   79.4339   -8.4416 O.3     1  UNL1       -0.3794
     42 C          24.4636   78.2954   -8.5162 C.3     1  UNL1        0.1693
     43 H          24.0729   80.1914   -8.8510 H       1  UNL1        0.2105
@<TRIPOS>UNITY_ATOM_ATTR
2 1
charge -1
26 1
charge -1
@<TRIPOS>BOND
     1    25    28    1
     2    25    24    1
     3    25    26    1
     4    25    27    2
     5     1     4    1
     6     1    24    1
     7     1     2    1
     8     1     3    2
     9     6    11    1
    10     6    12    1
    11    29    36    1
    12    29    37    1
    13     7     9    1
    14     7    13    1
    15     8    10    1
    16     8    14    1
    17    28    37    1
    18     4     5    1
    19    30    33    1
    20    30    38    1
    21    31    34    1
    22    31    39    1
    23    32    35    1
    24    32    40    1
    25    41    42    1
    26    41    43    1
    27    15    19    2
    28    16    22    2
    29    17    12    1
    30    17    19   ar
    31    17    20   ar
    32    18    19   ar
    33    18    22   ar
    34    18    23    1
    35     9    10    1
    36     9    11    1
    37    10    12    1
    38    11     5    1
    39    33    34    1
    40    33    35    1
    41    34    36    1
    42    35    37    1
    43    36    42    1
    44    20    21   ar
    45    21    22   ar
@<TRIPOS>MOLECULE
*****
 43 45 0 0 0
SMALL
GASTEIGER

@<TRIPOS>ATOM
      1 P          21.7368   70.3331   -1.0863 P.3     1  UNL1        0.2189
      2 O          23.3008   70.4516   -1.4827 O.co2   1  UNL1       -0.4371
      3 O          21.4656   69.6677    0.2310 O.2     1  UNL1       -0.5170
      4 O          21.0603   69.6339   -2.3791 O.3     1  UNL1       -0.3112
      5 C          20.7603   70.4407   -3.5046 C.3     1  UNL1        0.1811
      6 O          19.0224   71.7341   -4.5442 O.3     1  UNL1       -0.3308
      7 O          17.2084   70.6668   -2.4086 O.3     1  UNL1       -0.3794
      8 O          16.5821   69.1058   -4.5551 O.3     1  UNL1       -0.3779
      9 C          18.2869   70.0201   -3.0823 C.3     1  UNL1        0.1713
     10 C          17.8818   69.6572   -4.4958 C.3     1  UNL1        0.1895
     11 C          19.3794   71.0550   -3.3204 C.3     1  UNL1        0.1764
     12 C          17.9817   70.9966   -5.2059 C.3     1  UNL1        0.2383
     13 H          16.4984   70.0255   -2.2453 H       1  UNL1        0.2105
     14 H          16.5701   68.2550   -4.0896 H       1  UNL1        0.2106
     15 O          16.1214   70.4166   -7.2506 O.2     1  UNL1       -0.2464
     16 O          19.3924   70.4807  -10.4967 O.2     1  UNL1       -0.2670
     17 N          18.3197   70.8565   -6.5942 N.ar    1  UNL1       -0.2551
     18 N          17.7516   70.4492   -8.8653 N.ar    1  UNL1       -0.2743
     19 C          17.3104   70.5635   -7.5408 C.ar    1  UNL1        0.3323
     20 C          19.6395   71.0097   -7.0050 C.ar    1  UNL1        0.0869
     21 C          20.0440   70.8962   -8.2718 C.ar    1  UNL1        0.0795
     22 C          19.0520   70.5914   -9.3230 C.ar    1  UNL1        0.2626
     23 H          17.0660   70.2450   -9.5421 H       1  UNL1        0.1734
     24 O          21.2194   71.8612   -1.1872 O.3     1  UNL1       -0.2703
     25 P          21.8711   73.2401   -0.6517 P.3     1  UNL1        0.2208
     26 O          22.6945   72.7760    0.6614 O.co2   1  UNL1       -0.4371
     27 O          20.8751   74.3356   -0.4030 O.2     1  UNL1       -0.5170
     28 O          23.0078   73.6038   -1.7383 O.3     1  UNL1       -0.2858
     29 O          23.7320   75.7901   -1.1798 O.3     1  UNL1       -0.3258
     30 O          26.1565   75.1077   -4.4519 O.3     1  UNL1       -0.3794
     31 O          27.2975   75.1039   -1.8164 O.3     1  UNL1       -0.3794
     32 O          23.4220   74.1581   -4.4579 O.3     1  UNL1       -0.3775
     33 C          25.4315   74.7537   -3.2711 C.3     1  UNL1        0.1715
     34 C          25.9841   75.5752   -2.1047 C.3     1  UNL1        0.1694
     35 C          23.9495   75.0548   -3.4862 C.3     1  UNL1        0.1967
     36 C          25.0876   75.4505   -0.8654 C.3     1  UNL1        0.1761
     37 C          23.1567   74.9499   -2.1822 C.3     1  UNL1        0.2704
     38 H          27.0983   74.9185   -4.3221 H       1  UNL1        0.2105
     39 H          27.8533   75.1877   -2.6072 H       1  UNL1        0.2105
     40 H          23.9321   74.2343   -5.2787 H       1  UNL1        0.2106
     41 O          26.4807   75.7032    1.0592 O.3     1  UNL1       -0.3794
     42 C          25.5322   76.3839    0.2584 C.3     1  UNL1        0.1693
     43 H          26.7729   76.2854    1.7785 H       1  UNL1        0.2105
@<TRIPOS>UNITY_ATOM_ATTR
2 1
charge -1
26 1
charge -1
@<TRIPOS>BOND
     1    25    28    1
     2    25    24    1
     3    25    26    1
     4    25    27    2
     5     1     4    1
     6     1    24    1
     7     1     2    1
     8     1     3    2
     9     6    11    1
    10     6    12    1
    11    29    36    1
    12    29    37    1
    13     7     9    1
    14     7    13    1
    15     8    10    1
    16     8    14    1
    17    28    37    1
    18     4     5    1
    19    30    33    1
    20    30    38    1
    21    31    34    1
    22    31    39    1
    23    32    35    1
    24    32    40    1
    25    41    42    1
    26    41    43    1
    27    15    19    2
    28    16    22    2
    29    17    12    1
    30    17    19   ar
    31    17    20   ar
    32    18    19   ar
    33    18    22   ar
    34    18    23    1
    35     9    10    1
    36     9    11    1
    37    10    12    1
    38    11     5    1
    39    33    34    1
    40    33    35    1
    41    34    36    1
    42    35    37    1
    43    36    42    1
    44    20    21   ar
    45    21    22   ar
@<TRIPOS>MOLECULE
*****
 43 45 0 0 0
SMALL
GASTEIGER

@<TRIPOS>ATOM
      1 P          22.3538   72.8980   -3.6917 P.3     1  UNL1        0.2189
      2 O          23.9059   72.5938   -4.0318 O.co2   1  UNL1       -0.4371
      3 O          22.0523   73.1031   -2.2362 O.2     1  UNL1       -0.5170
      4 O          21.5543   71.6893   -4.4113 O.3     1  UNL1       -0.3112
      5 C          20.8170   70.7900   -3.6017 C.3     1  UNL1        0.1811
      6 O          18.9832   71.9194   -4.6674 O.3     1  UNL1       -0.3308
      7 O          17.2816   70.8676   -2.4338 O.3     1  UNL1       -0.3794
      8 O          16.7052   69.1559   -4.4769 O.3     1  UNL1       -0.3779
      9 C          18.3826   70.2490   -3.0975 C.3     1  UNL1        0.1713
     10 C          17.9705   69.7850   -4.4790 C.3     1  UNL1        0.1895
     11 C          19.4059   71.3314   -3.4176 C.3     1  UNL1        0.1764
     12 C          17.9749   71.0865   -5.2628 C.3     1  UNL1        0.2383
     13 H          16.6150   70.1958   -2.2188 H       1  UNL1        0.2105
     14 H          16.7540   68.3329   -3.9659 H       1  UNL1        0.2106
     15 O          16.0701   70.5193   -7.2697 O.2     1  UNL1       -0.2464
     16 O          19.3048   70.3495  -10.5484 O.2     1  UNL1       -0.2670
     17 N          18.2916   70.8897   -6.6493 N.ar    1  UNL1       -0.2551
     18 N          17.6823   70.4354   -8.9006 N.ar    1  UNL1       -0.2743
     19 C          17.2608   70.6087   -7.5761 C.ar    1  UNL1        0.3323
     20 C          19.6118   70.9763   -7.0776 C.ar    1  UNL1        0.0869
     21 C          19.9972   70.8072   -8.3441 C.ar    1  UNL1        0.0795
     22 C          18.9821   70.5104   -9.3754 C.ar    1  UNL1        0.2626
     23 H          16.9815   70.2384   -9.5639 H       1  UNL1        0.1734
     24 O          22.0173   74.1678   -4.6338 O.3     1  UNL1       -0.2703
     25 P          21.9828   74.3160   -6.2430 P.3     1  UNL1        0.2208
     26 O          22.6565   72.9379   -6.7572 O.co2   1  UNL1       -0.4371
     27 O          22.6450   75.5599   -6.7608 O.2     1  UNL1       -0.5170
     28 O          20.4226   74.1772   -6.6326 O.3     1  UNL1       -0.2858
     29 O          18.9195   75.0859   -8.2236 O.3     1  UNL1       -0.3258
     30 O          16.6934   75.6820   -4.7972 O.3     1  UNL1       -0.3794
     31 O          15.9092   73.6422   -6.6606 O.3     1  UNL1       -0.3794
     32 O          19.5626   76.0616   -4.7394 O.3     1  UNL1       -0.3775
     33 C          17.6078   74.9917   -5.6533 C.3     1  UNL1        0.1715
     34 C          16.8789   74.6445   -6.9529 C.3     1  UNL1        0.1694
     35 C          18.8072   75.8949   -5.9344 C.3     1  UNL1        0.1967
     36 C          17.8599   74.1435   -8.0215 C.3     1  UNL1        0.1761
     37 C          19.6922   75.3289   -7.0464 C.3     1  UNL1        0.2704
     38 H          15.9297   75.1137   -4.6145 H       1  UNL1        0.2105
     39 H          15.2963   73.9710   -5.9843 H       1  UNL1        0.2105
     40 H          18.9913   76.4207   -4.0433 H       1  UNL1        0.2106
     41 O          16.8364   75.2106   -9.8984 O.3     1  UNL1       -0.3794
     42 C          17.1789   73.9412   -9.3733 C.3     1  UNL1        0.1693
     43 H          16.4024   75.0974  -10.7589 H       1  UNL1        0.2105
@<TRIPOS>UNITY_ATOM_ATTR
2 1
charge -1
26 1
charge -1
@<TRIPOS>BOND
     1    25    28    1
     2    25    24    1
     3    25    26    1
     4    25    27    2
     5     1     4    1
     6     1    24    1
     7     1     2    1
     8     1     3    2
     9     6    11    1
    10     6    12    1
    11    29    36    1
    12    29    37    1
    13     7     9    1
    14     7    13    1
    15     8    10    1
    16     8    14    1
    17    28    37    1
    18     4     5    1
    19    30    33    1
    20    30    38    1
    21    31    34    1
    22    31    39    1
    23    32    35    1
    24    32    40    1
    25    41    42    1
    26    41    43    1
    27    15    19    2
    28    16    22    2
    29    17    12    1
    30    17    19   ar
    31    17    20   ar
    32    18    19   ar
    33    18    22   ar
    34    18    23    1
    35     9    10    1
    36     9    11    1
    37    10    12    1
    38    11     5    1
    39    33    34    1
    40    33    35    1
    41    34    36    1
    42    35    37    1
    43    36    42    1
    44    20    21   ar
    45    21    22   ar
@<TRIPOS>MOLECULE
*****
 43 45 0 0 0
SMALL
GASTEIGER

@<TRIPOS>ATOM
      1 P          22.7201   71.8933   -2.2040 P.3     1  UNL1        0.2189
      2 O          23.1168   70.7336   -3.2599 O.co2   1  UNL1       -0.4371
      3 O          23.0153   71.5714   -0.7685 O.2     1  UNL1       -0.5170
      4 O          21.1727   72.2183   -2.5473 O.3     1  UNL1       -0.3112
      5 C          20.4748   71.3434   -3.4164 C.3     1  UNL1        0.1811
      6 O          18.5373   72.1411   -4.5926 O.3     1  UNL1       -0.3308
      7 O          16.9184   70.8031   -2.4526 O.3     1  UNL1       -0.3794
      8 O          16.7654   69.0239   -4.5135 O.3     1  UNL1       -0.3779
      9 C          18.1461   70.3869   -3.0482 C.3     1  UNL1        0.1713
     10 C          17.9005   69.8629   -4.4477 C.3     1  UNL1        0.1895
     11 C          18.9830   71.6314   -3.3168 C.3     1  UNL1        0.1764
     12 C          17.7244   71.1479   -5.2388 C.3     1  UNL1        0.2383
     13 H          16.3670   70.0252   -2.2715 H       1  UNL1        0.2105
     14 H          16.9267   68.2203   -3.9950 H       1  UNL1        0.2106
     15 O          16.0499   70.3198   -7.3574 O.2     1  UNL1       -0.2464
     16 O          19.4635   70.6667  -10.4343 O.2     1  UNL1       -0.2670
     17 N          18.1493   71.0135   -6.6036 N.ar    1  UNL1       -0.2551
     18 N          17.7509   70.4934   -8.8878 N.ar    1  UNL1       -0.2743
     19 C          17.2298   70.5895   -7.5911 C.ar    1  UNL1        0.3323
     20 C          19.4648   71.3010   -6.9514 C.ar    1  UNL1        0.0869
     21 C          19.9463   71.2030   -8.1922 C.ar    1  UNL1        0.0795
     22 C          19.0508   70.7667   -9.2830 C.ar    1  UNL1        0.2626
     23 H          17.1287   70.1995   -9.5922 H       1  UNL1        0.1734
     24 O          23.4991   73.1886   -2.7770 O.3     1  UNL1       -0.2703
     25 P          23.2668   74.0595   -4.1188 P.3     1  UNL1        0.2208
     26 O          22.0263   75.0213   -3.7267 O.co2   1  UNL1       -0.4371
     27 O          23.0461   73.2375   -5.3555 O.2     1  UNL1       -0.5170
     28 O          24.5414   75.0471   -4.1906 O.3     1  UNL1       -0.2858
     29 O          26.8765   74.6445   -4.2329 O.3     1  UNL1       -0.3258
     30 O          26.8191   77.9337   -1.7371 O.3     1  UNL1       -0.3794
     31 O          27.7985   78.2086   -4.4229 O.3     1  UNL1       -0.3794
     32 O          24.7388   75.9309   -1.5345 O.3     1  UNL1       -0.3775
     33 C          26.3851   77.1196   -2.8300 C.3     1  UNL1        0.1715
     34 C          27.5580   76.9510   -3.7977 C.3     1  UNL1        0.1694
     35 C          25.9318   75.7634   -2.2929 C.3     1  UNL1        0.1967
     36 C          27.2556   75.8787   -4.8532 C.3     1  UNL1        0.1761
     37 C          25.7055   74.7559   -3.4216 C.3     1  UNL1        0.2704
     38 H          27.1077   78.7966   -2.0713 H       1  UNL1        0.2105
     39 H          27.9876   78.8768   -3.7455 H       1  UNL1        0.2105
     40 H          24.8953   76.5707   -0.8231 H       1  UNL1        0.2106
     41 O          28.0118   75.1825   -7.0101 O.3     1  UNL1       -0.3794
     42 C          28.4693   75.5822   -5.7313 C.3     1  UNL1        0.1693
     43 H          28.7736   74.9908   -7.5799 H       1  UNL1        0.2105
@<TRIPOS>UNITY_ATOM_ATTR
2 1
charge -1
26 1
charge -1
@<TRIPOS>BOND
     1    25    28    1
     2    25    24    1
     3    25    26    1
     4    25    27    2
     5     1     4    1
     6     1    24    1
     7     1     2    1
     8     1     3    2
     9     6    11    1
    10     6    12    1
    11    29    36    1
    12    29    37    1
    13     7     9    1
    14     7    13    1
    15     8    10    1
    16     8    14    1
    17    28    37    1
    18     4     5    1
    19    30    33    1
    20    30    38    1
    21    31    34    1
    22    31    39    1
    23    32    35    1
    24    32    40    1
    25    41    42    1
    26    41    43    1
    27    15    19    2
    28    16    22    2
    29    17    12    1
    30    17    19   ar
    31    17    20   ar
    32    18    19   ar
    33    18    22   ar
    34    18    23    1
    35     9    10    1
    36     9    11    1
    37    10    12    1
    38    11     5    1
    39    33    34    1
    40    33    35    1
    41    34    36    1
    42    35    37    1
    43    36    42    1
    44    20    21   ar
    45    21    22   ar
@<TRIPOS>MOLECULE
*****
 43 45 0 0 0
SMALL
GASTEIGER

@<TRIPOS>ATOM
      1 P          23.1033   73.9398   -4.0462 P.3     1  UNL1        0.2189
      2 O          22.5497   75.2568   -3.2870 O.co2   1  UNL1       -0.4371
      3 O          24.5313   73.5893   -3.7475 O.2     1  UNL1       -0.5170
      4 O          22.7582   74.2149   -5.6028 O.3     1  UNL1       -0.3112
      5 C          22.5013   73.1046   -6.4449 C.3     1  UNL1        0.1811
      6 O          21.4377   72.7008   -8.5614 O.3     1  UNL1       -0.3308
      7 O          22.0969   75.5498   -9.2245 O.3     1  UNL1       -0.3794
      8 O          19.4606   75.6931   -8.5418 O.3     1  UNL1       -0.3779
      9 C          21.7145   74.9798   -7.9738 C.3     1  UNL1        0.1713
     10 C          20.2350   74.6565   -7.9737 C.3     1  UNL1        0.1895
     11 C          22.3427   73.5951   -7.8775 C.3     1  UNL1        0.1764
     12 C          20.1918   73.3781   -8.7934 C.3     1  UNL1        0.2383
     13 H          21.7078   76.4349   -9.3087 H       1  UNL1        0.2105
     14 H          19.5204   76.4844   -7.9841 H       1  UNL1        0.2106
     15 O          19.3357   71.1293  -10.2726 O.2     1  UNL1       -0.2464
     16 O          16.0391   70.1392   -7.2077 O.2     1  UNL1       -0.2670
     17 N          19.1124   72.5147   -8.4050 N.ar    1  UNL1       -0.2551
     18 N          17.6951   70.6380   -8.7452 N.ar    1  UNL1       -0.2743
     19 C          18.7615   71.4127   -9.2192 C.ar    1  UNL1        0.3323
     20 C          18.4145   72.7642   -7.2283 C.ar    1  UNL1        0.0869
     21 C          17.3991   72.0165   -6.7910 C.ar    1  UNL1        0.0795
     22 C          16.9693   70.8461   -7.5830 C.ar    1  UNL1        0.2626
     23 H          17.4327   69.8652   -9.2962 H       1  UNL1        0.1734
     24 O          22.0308   72.8036   -3.6316 O.3     1  UNL1       -0.2703
     25 P          22.2328   71.3498   -2.9543 P.3     1  UNL1        0.2208
     26 O          22.0145   71.6414   -1.3779 O.co2   1  UNL1       -0.4371
     27 O          23.5408   70.6923   -3.2871 O.2     1  UNL1       -0.5170
     28 O          20.9291   70.5079   -3.3975 O.3     1  UNL1       -0.2858
     29 O          19.4346   71.2196   -1.7014 O.3     1  UNL1       -0.3258
     30 O          16.7534   69.2823   -4.1731 O.3     1  UNL1       -0.3794
     31 O          16.7401   72.1510   -4.0383 O.3     1  UNL1       -0.3794
     32 O          19.4015   68.1839   -3.7725 O.3     1  UNL1       -0.3775
     33 C          17.9065   70.0701   -3.8646 C.3     1  UNL1        0.1715
     34 C          17.4453   71.3232   -3.1177 C.3     1  UNL1        0.1694
     35 C          18.8565   69.2463   -2.9973 C.3     1  UNL1        0.1967
     36 C          18.6379   72.0828   -2.5211 C.3     1  UNL1        0.1761
     37 C          19.9786   70.1069   -2.4141 C.3     1  UNL1        0.2704
     38 H          16.1463   69.7995   -4.7240 H       1  UNL1        0.2105
     39 H          15.9900   71.6594   -4.4081 H       1  UNL1        0.2105
     40 H          18.6812   67.6463   -4.1358 H       1  UNL1        0.2106
     41 O          16.8230   73.0714   -1.3220 O.3     1  UNL1       -0.3794
     42 C          18.1913   73.2474   -1.6400 C.3     1  UNL1        0.1693
     43 H          16.5250   73.8052   -0.7613 H       1  UNL1        0.2105
@<TRIPOS>UNITY_ATOM_ATTR
2 1
charge -1
26 1
charge -1
@<TRIPOS>BOND
     1    25    28    1
     2    25    24    1
     3    25    26    1
     4    25    27    2
     5     1     4    1
     6     1    24    1
     7     1     2    1
     8     1     3    2
     9     6    11    1
    10     6    12    1
    11    29    36    1
    12    29    37    1
    13     7     9    1
    14     7    13    1
    15     8    10    1
    16     8    14    1
    17    28    37    1
    18     4     5    1
    19    30    33    1
    20    30    38    1
    21    31    34    1
    22    31    39    1
    23    32    35    1
    24    32    40    1
    25    41    42    1
    26    41    43    1
    27    15    19    2
    28    16    22    2
    29    17    12    1
    30    17    19   ar
    31    17    20   ar
    32    18    19   ar
    33    18    22   ar
    34    18    23    1
    35     9    10    1
    36     9    11    1
    37    10    12    1
    38    11     5    1
    39    33    34    1
    40    33    35    1
    41    34    36    1
    42    35    37    1
    43    36    42    1
    44    20    21   ar
    45    21    22   ar
@<TRIPOS>MOLECULE
*****
 43 45 0 0 0
SMALL
GASTEIGER

@<TRIPOS>ATOM
      1 P          22.3185   73.3785   -5.2927 P.3     1  UNL1        0.2189
      2 O          22.7109   74.8130   -5.9297 O.co2   1  UNL1       -0.4371
      3 O          23.4582   72.6301   -4.6663 O.2     1  UNL1       -0.5170
      4 O          21.5539   72.6149   -6.4968 O.3     1  UNL1       -0.3112
      5 C          20.8105   73.3875   -7.4233 C.3     1  UNL1        0.1811
      6 O          19.9980   71.1603   -7.8144 O.3     1  UNL1       -0.3308
      7 O          18.4689   72.3236  -10.1165 O.3     1  UNL1       -0.3794
      8 O          16.5563   72.0980   -8.1858 O.3     1  UNL1       -0.3779
      9 C          18.7565   72.8974   -8.8424 C.3     1  UNL1        0.1713
     10 C          17.8978   72.2576   -7.7715 C.3     1  UNL1        0.1895
     11 C          20.1562   72.4555   -8.4339 C.3     1  UNL1        0.1764
     12 C          18.6039   70.9303   -7.5528 C.3     1  UNL1        0.2383
     13 H          17.5799   72.5920  -10.3986 H       1  UNL1        0.2105
     14 H          16.1506   72.9701   -8.3115 H       1  UNL1        0.2106
     15 O          16.2755   69.6803   -6.5558 O.2     1  UNL1       -0.2464
     16 O          18.1462   69.1125   -2.3822 O.2     1  UNL1       -0.2670
     17 N          18.4553   70.4456   -6.2095 N.ar    1  UNL1       -0.2551
     18 N          17.2089   69.3984   -4.4785 N.ar    1  UNL1       -0.2743
     19 C          17.2444   69.8341   -5.8093 C.ar    1  UNL1        0.3323
     20 C          19.5031   70.5785   -5.3050 C.ar    1  UNL1        0.0869
     21 C          19.4529   70.1589   -4.0390 C.ar    1  UNL1        0.0795
     22 C          18.2235   69.5090   -3.5409 C.ar    1  UNL1        0.2626
     23 H          16.3752   68.9696   -4.1772 H       1  UNL1        0.1734
     24 O          21.1172   73.7485   -4.2763 O.3     1  UNL1       -0.2703
     25 P          21.1438   74.3305   -2.7685 P.3     1  UNL1        0.2208
     26 O          19.6370   74.8802   -2.5564 O.co2   1  UNL1       -0.4371
     27 O          22.2160   75.3520   -2.5219 O.2     1  UNL1       -0.5170
     28 O          21.2368   73.0226   -1.8274 O.3     1  UNL1       -0.2858
     29 O          22.9036   73.4026   -0.1860 O.3     1  UNL1       -0.3258
     30 O          21.9738   69.4812    0.7134 O.3     1  UNL1       -0.3794
     31 O          21.1279   71.5804    2.4814 O.3     1  UNL1       -0.3794
     32 O          22.0587   70.3484   -2.0471 O.3     1  UNL1       -0.3775
     33 C          21.7037   70.8197    0.2881 C.3     1  UNL1        0.1715
     34 C          22.0711   71.7691    1.4302 C.3     1  UNL1        0.1694
     35 C          22.5369   71.1262   -0.9549 C.3     1  UNL1        0.1967
     36 C          22.0626   73.2301    0.9606 C.3     1  UNL1        0.1761
     37 C          22.4994   72.6144   -1.3072 C.3     1  UNL1        0.2704
     38 H          21.4474   69.2800    1.5021 H       1  UNL1        0.2105
     39 H          21.1429   70.6538    2.7685 H       1  UNL1        0.2105
     40 H          22.0878   69.4084   -1.8117 H       1  UNL1        0.2106
     41 O          21.5515   75.1034    2.3529 O.3     1  UNL1       -0.3794
     42 C          22.5782   74.1805    2.0390 C.3     1  UNL1        0.1693
     43 H          21.8653   75.7145    3.0383 H       1  UNL1        0.2105
@<TRIPOS>UNITY_ATOM_ATTR
2 1
charge -1
26 1
charge -1
@<TRIPOS>BOND
     1    25    28    1
     2    25    24    1
     3    25    26    1
     4    25    27    2
     5     1     4    1
     6     1    24    1
     7     1     2    1
     8     1     3    2
     9     6    11    1
    10     6    12    1
    11    29    36    1
    12    29    37    1
    13     7     9    1
    14     7    13    1
    15     8    10    1
    16     8    14    1
    17    28    37    1
    18     4     5    1
    19    30    33    1
    20    30    38    1
    21    31    34    1
    22    31    39    1
    23    32    35    1
    24    32    40    1
    25    41    42    1
    26    41    43    1
    27    15    19    2
    28    16    22    2
    29    17    12    1
    30    17    19   ar
    31    17    20   ar
    32    18    19   ar
    33    18    22   ar
    34    18    23    1
    35     9    10    1
    36     9    11    1
    37    10    12    1
    38    11     5    1
    39    33    34    1
    40    33    35    1
    41    34    36    1
    42    35    37    1
    43    36    42    1
    44    20    21   ar
    45    21    22   ar
@<TRIPOS>MOLECULE
*****
 43 45 0 0 0
SMALL
GASTEIGER

@<TRIPOS>ATOM
      1 P          22.6049   72.9338   -4.3349 P.3     1  UNL1        0.2189
      2 O          22.9651   73.4024   -5.8410 O.co2   1  UNL1       -0.4371
      3 O          23.4039   71.7707   -3.8249 O.2     1  UNL1       -0.5170
      4 O          21.0008   72.7245   -4.3665 O.3     1  UNL1       -0.3112
      5 C          20.4399   71.6800   -3.5905 C.3     1  UNL1        0.1811
      6 O          18.4415   72.3167   -4.7629 O.3     1  UNL1       -0.3308
      7 O          16.9352   71.0270   -2.5138 O.3     1  UNL1       -0.3794
      8 O          16.8257   69.1284   -4.4683 O.3     1  UNL1       -0.3779
      9 C          18.1689   70.6364   -3.1143 C.3     1  UNL1        0.1713
     10 C          17.9197   70.0228   -4.4763 C.3     1  UNL1        0.1895
     11 C          18.9383   71.9020   -3.4716 C.3     1  UNL1        0.1764
     12 C          17.6645   71.2510   -5.3333 C.3     1  UNL1        0.2383
     13 H          16.4263   70.2354   -2.2766 H       1  UNL1        0.2105
     14 H          17.0368   68.3641   -3.9098 H       1  UNL1        0.2106
     15 O          15.9830   70.2414   -7.3658 O.2     1  UNL1       -0.2464
     16 O          19.3156   70.5578  -10.5336 O.2     1  UNL1       -0.2670
     17 N          18.0667   71.0596   -6.6983 N.ar    1  UNL1       -0.2551
     18 N          17.6437   70.4000   -8.9415 N.ar    1  UNL1       -0.2743
     19 C          17.1456   70.5455   -7.6405 C.ar    1  UNL1        0.3323
     20 C          19.3617   71.3807   -7.0907 C.ar    1  UNL1        0.0869
     21 C          19.8214   71.2348   -8.3351 C.ar    1  UNL1        0.0795
     22 C          18.9227   70.7037   -9.3803 C.ar    1  UNL1        0.2626
     23 H          17.0199   70.0432   -9.6149 H       1  UNL1        0.1734
     24 O          22.7769   74.2949   -3.4799 O.3     1  UNL1       -0.2703
     25 P          22.0266   74.8117   -2.1447 P.3     1  UNL1        0.2208
     26 O          20.5189   75.1018   -2.6551 O.co2   1  UNL1       -0.4371
     27 O          22.6910   75.9820   -1.4794 O.2     1  UNL1       -0.5170
     28 O          21.8967   73.4988   -1.2150 O.3     1  UNL1       -0.2858
     29 O          23.1967   73.7767    0.7470 O.3     1  UNL1       -0.3258
     30 O          22.0745   69.8350    1.2518 O.3     1  UNL1       -0.3794
     31 O          20.9014   71.8666    2.9085 O.3     1  UNL1       -0.3794
     32 O          22.7265   70.8238   -1.3895 O.3     1  UNL1       -0.3775
     33 C          21.9065   71.1956    0.8445 C.3     1  UNL1        0.1715
     34 C          22.0404   72.0865    2.0811 C.3     1  UNL1        0.1694
     35 C          22.9778   71.5436   -0.1874 C.3     1  UNL1        0.1967
     36 C          22.1384   73.5670    1.6893 C.3     1  UNL1        0.1761
     37 C          23.0237   73.0465   -0.4690 C.3     1  UNL1        0.2704
     38 H          21.3970   69.6075    1.9067 H       1  UNL1        0.2105
     39 H          20.8509   70.9280    3.1484 H       1  UNL1        0.2105
     40 H          22.7001   69.8738   -1.1979 H       1  UNL1        0.2106
     41 O          21.3361   75.3385    3.0774 O.3     1  UNL1       -0.3794
     42 C          22.4303   74.4593    2.8937 C.3     1  UNL1        0.1693
     43 H          21.5077   75.9124    3.8409 H       1  UNL1        0.2105
@<TRIPOS>UNITY_ATOM_ATTR
2 1
charge -1
26 1
charge -1
@<TRIPOS>BOND
     1    25    28    1
     2    25    24    1
     3    25    26    1
     4    25    27    2
     5     1     4    1
     6     1    24    1
     7     1     2    1
     8     1     3    2
     9     6    11    1
    10     6    12    1
    11    29    36    1
    12    29    37    1
    13     7     9    1
    14     7    13    1
    15     8    10    1
    16     8    14    1
    17    28    37    1
    18     4     5    1
    19    30    33    1
    20    30    38    1
    21    31    34    1
    22    31    39    1
    23    32    35    1
    24    32    40    1
    25    41    42    1
    26    41    43    1
    27    15    19    2
    28    16    22    2
    29    17    12    1
    30    17    19   ar
    31    17    20   ar
    32    18    19   ar
    33    18    22   ar
    34    18    23    1
    35     9    10    1
    36     9    11    1
    37    10    12    1
    38    11     5    1
    39    33    34    1
    40    33    35    1
    41    34    36    1
    42    35    37    1
    43    36    42    1
    44    20    21   ar
    45    21    22   ar
@<TRIPOS>MOLECULE
*****
 43 45 0 0 0
SMALL
GASTEIGER

@<TRIPOS>ATOM
      1 P          21.8583   70.7256   -2.8515 P.3     1  UNL1        0.2189
      2 O          23.3496   70.8784   -3.4598 O.co2   1  UNL1       -0.4371
      3 O          21.2700   69.3491   -2.9538 O.2     1  UNL1       -0.5170
      4 O          21.0200   71.9037   -3.5778 O.3     1  UNL1       -0.3112
      5 C          20.1606   71.5595   -4.6504 C.3     1  UNL1        0.1811
      6 O          17.8946   72.3570   -4.7074 O.3     1  UNL1       -0.3308
      7 O          17.1290   69.7032   -3.5402 O.3     1  UNL1       -0.3794
      8 O          16.5117   69.3926   -6.1782 O.3     1  UNL1       -0.3779
      9 C          18.1483   70.0109   -4.4898 C.3     1  UNL1        0.1713
     10 C          17.5347   70.3077   -5.8422 C.3     1  UNL1        0.1895
     11 C          18.7510   71.3581   -4.1113 C.3     1  UNL1        0.1764
     12 C          17.0138   71.7217   -5.6483 C.3     1  UNL1        0.2383
     13 H          16.7295   68.8467   -3.7610 H       1  UNL1        0.2105
     14 H          16.8932   68.5080   -6.2909 H       1  UNL1        0.2106
     15 O          18.6518   71.1533   -7.8781 O.2     1  UNL1       -0.2464
     16 O          16.9253   74.6886  -10.2785 O.2     1  UNL1       -0.2670
     17 N          17.0126   72.4771   -6.8693 N.ar    1  UNL1       -0.2551
     18 N          17.7907   72.9140   -9.0716 N.ar    1  UNL1       -0.2743
     19 C          17.8747   72.1090   -7.9284 C.ar    1  UNL1        0.3323
     20 C          16.1630   73.5693   -7.0076 C.ar    1  UNL1        0.0869
     21 C          16.0958   74.3275   -8.1039 C.ar    1  UNL1        0.0795
     22 C          16.9636   74.0105   -9.2565 C.ar    1  UNL1        0.2626
     23 H          18.3823   72.6767   -9.8222 H       1  UNL1        0.1734
     24 O          22.0239   71.2759   -1.3406 O.3     1  UNL1       -0.2703
     25 P          22.4215   70.5146    0.0288 P.3     1  UNL1        0.2208
     26 O          23.8638   69.8659   -0.3127 O.co2   1  UNL1       -0.4371
     27 O          21.3954   69.5272    0.5042 O.2     1  UNL1       -0.5170
     28 O          22.7451   71.6995    1.0758 O.3     1  UNL1       -0.2858
     29 O          21.3188   72.9460    2.5000 O.3     1  UNL1       -0.3258
     30 O          23.9288   75.9469    1.3896 O.3     1  UNL1       -0.3794
     31 O          24.0479   74.8776    4.0524 O.3     1  UNL1       -0.3794
     32 O          23.1045   73.9602   -0.5476 O.3     1  UNL1       -0.3775
     33 C          23.5480   74.6107    1.7286 C.3     1  UNL1        0.1715
     34 C          22.9772   74.6203    3.1481 C.3     1  UNL1        0.1694
     35 C          22.4997   74.1220    0.7308 C.3     1  UNL1        0.1967
     36 C          22.3043   73.2825    3.4836 C.3     1  UNL1        0.1761
     37 C          21.8576   72.8095    1.1836 C.3     1  UNL1        0.2704
     38 H          24.5947   76.2630    2.0190 H       1  UNL1        0.2105
     39 H          24.4646   75.7249    3.8293 H       1  UNL1        0.2105
     40 H          23.5070   74.7979   -0.8232 H       1  UNL1        0.2106
     41 O          22.5175   72.9632    5.8419 O.3     1  UNL1       -0.3794
     42 C          21.5914   73.3235    4.8335 C.3     1  UNL1        0.1693
     43 H          22.0778   72.9852    6.7067 H       1  UNL1        0.2105
@<TRIPOS>UNITY_ATOM_ATTR
2 1
charge -1
26 1
charge -1
@<TRIPOS>BOND
     1    25    28    1
     2    25    24    1
     3    25    26    1
     4    25    27    2
     5     1     4    1
     6     1    24    1
     7     1     2    1
     8     1     3    2
     9     6    11    1
    10     6    12    1
    11    29    36    1
    12    29    37    1
    13     7     9    1
    14     7    13    1
    15     8    10    1
    16     8    14    1
    17    28    37    1
    18     4     5    1
    19    30    33    1
    20    30    38    1
    21    31    34    1
    22    31    39    1
    23    32    35    1
    24    32    40    1
    25    41    42    1
    26    41    43    1
    27    15    19    2
    28    16    22    2
    29    17    12    1
    30    17    19   ar
    31    17    20   ar
    32    18    19   ar
    33    18    22   ar
    34    18    23    1
    35     9    10    1
    36     9    11    1
    37    10    12    1
    38    11     5    1
    39    33    34    1
    40    33    35    1
    41    34    36    1
    42    35    37    1
    43    36    42    1
    44    20    21   ar
    45    21    22   ar
@<TRIPOS>MOLECULE
*****
 43 45 0 0 0
SMALL
GASTEIGER

@<TRIPOS>ATOM
      1 P          23.0182   72.1223   -3.2678 P.3     1  UNL1        0.2189
      2 O          23.7352   72.9595   -4.4520 O.co2   1  UNL1       -0.4371
      3 O          23.5190   70.7190   -3.0909 O.2     1  UNL1       -0.5170
      4 O          21.4393   72.2696   -3.5890 O.3     1  UNL1       -0.3112
      5 C          20.6265   71.1103   -3.5313 C.3     1  UNL1        0.1811
      6 O          18.7408   72.0711   -4.6692 O.3     1  UNL1       -0.3308
      7 O          17.0603   70.8997   -2.4796 O.3     1  UNL1       -0.3794
      8 O          16.6982   69.1269   -4.5199 O.3     1  UNL1       -0.3779
      9 C          18.2308   70.3702   -3.0999 C.3     1  UNL1        0.1713
     10 C          17.9054   69.8607   -4.4884 C.3     1  UNL1        0.1895
     11 C          19.1696   71.5323   -3.3995 C.3     1  UNL1        0.1764
     12 C          17.8265   71.1507   -5.2870 C.3     1  UNL1        0.2383
     13 H          16.4457   70.1760   -2.2785 H       1  UNL1        0.2105
     14 H          16.7990   68.3157   -3.9979 H       1  UNL1        0.2106
     15 O          16.0393   70.4311   -7.3524 O.2     1  UNL1       -0.2464
     16 O          19.3893   70.4795  -10.5174 O.2     1  UNL1       -0.2670
     17 N          18.2047   70.9688   -6.6601 N.ar    1  UNL1       -0.2551
     18 N          17.7088   70.4559   -8.9267 N.ar    1  UNL1       -0.2743
     19 C          17.2301   70.6063   -7.6189 C.ar    1  UNL1        0.3323
     20 C          19.5289   71.1500   -7.0441 C.ar    1  UNL1        0.0869
     21 C          19.9694   71.0015   -8.2951 C.ar    1  UNL1        0.0795
     22 C          19.0152   70.6237   -9.3576 C.ar    1  UNL1        0.2626
     23 H          17.0478   70.2033   -9.6116 H       1  UNL1        0.1734
     24 O          23.2169   73.0752   -1.9773 O.3     1  UNL1       -0.2703
     25 P          23.6659   74.6236   -1.8601 P.3     1  UNL1        0.2208
     26 O          23.5847   74.9143   -0.2706 O.co2   1  UNL1       -0.4371
     27 O          22.8558   75.5648   -2.7039 O.2     1  UNL1       -0.5170
     28 O          25.2451   74.6174   -2.1932 O.3     1  UNL1       -0.2858
     29 O          27.0728   76.0774   -1.8128 O.3     1  UNL1       -0.3258
     30 O          27.7506   75.1937   -5.7891 O.3     1  UNL1       -0.3794
     31 O          29.4719   74.0829   -3.7763 O.3     1  UNL1       -0.3794
     32 O          25.0427   75.5532   -4.8311 O.3     1  UNL1       -0.3775
     33 C          27.3360   74.9250   -4.4470 C.3     1  UNL1        0.1715
     34 C          28.5386   75.1295   -3.5235 C.3     1  UNL1        0.1694
     35 C          26.2032   75.8794   -4.0739 C.3     1  UNL1        0.1967
     36 C          28.1127   75.1211   -2.0492 C.3     1  UNL1        0.1761
     37 C          25.8914   75.8283   -2.5771 C.3     1  UNL1        0.2704
     38 H          28.4694   74.5907   -6.0324 H       1  UNL1        0.2105
     39 H          29.7323   74.0990   -4.7107 H       1  UNL1        0.2105
     40 H          25.2531   75.5895   -5.7767 H       1  UNL1        0.2106
     41 O          28.9188   75.0988    0.1999 O.3     1  UNL1       -0.3794
     42 C          29.2687   75.4798   -1.1179 C.3     1  UNL1        0.1693
     43 H          29.6454   75.3208    0.8037 H       1  UNL1        0.2105
@<TRIPOS>UNITY_ATOM_ATTR
2 1
charge -1
26 1
charge -1
@<TRIPOS>BOND
     1    25    28    1
     2    25    24    1
     3    25    26    1
     4    25    27    2
     5     1     4    1
     6     1    24    1
     7     1     2    1
     8     1     3    2
     9     6    11    1
    10     6    12    1
    11    29    36    1
    12    29    37    1
    13     7     9    1
    14     7    13    1
    15     8    10    1
    16     8    14    1
    17    28    37    1
    18     4     5    1
    19    30    33    1
    20    30    38    1
    21    31    34    1
    22    31    39    1
    23    32    35    1
    24    32    40    1
    25    41    42    1
    26    41    43    1
    27    15    19    2
    28    16    22    2
    29    17    12    1
    30    17    19   ar
    31    17    20   ar
    32    18    19   ar
    33    18    22   ar
    34    18    23    1
    35     9    10    1
    36     9    11    1
    37    10    12    1
    38    11     5    1
    39    33    34    1
    40    33    35    1
    41    34    36    1
    42    35    37    1
    43    36    42    1
    44    20    21   ar
    45    21    22   ar
@<TRIPOS>MOLECULE
*****
 43 45 0 0 0
SMALL
GASTEIGER

@<TRIPOS>ATOM
      1 P          22.5891   73.1099   -4.3275 P.3     1  UNL1        0.2189
      2 O          22.7072   74.0977   -5.6033 O.co2   1  UNL1       -0.4371
      3 O          23.8741   72.4571   -3.9103 O.2     1  UNL1       -0.5170
      4 O          21.3865   72.1033   -4.7256 O.3     1  UNL1       -0.3112
      5 C          20.8127   71.3000   -3.7092 C.3     1  UNL1        0.1811
      6 O          18.8562   72.1774   -4.7935 O.3     1  UNL1       -0.3308
      7 O          17.3049   71.0660   -2.4806 O.3     1  UNL1       -0.3794
      8 O          16.8842   69.2040   -4.4281 O.3     1  UNL1       -0.3779
      9 C          18.4558   70.5335   -3.1343 C.3     1  UNL1        0.1713
     10 C          18.0761   69.9610   -4.4840 C.3     1  UNL1        0.1895
     11 C          19.3551   71.6996   -3.5250 C.3     1  UNL1        0.1764
     12 C          17.9331   71.2152   -5.3293 C.3     1  UNL1        0.2383
     13 H          16.7156   70.3398   -2.2213 H       1  UNL1        0.2105
     14 H          17.0262   68.4171   -3.8792 H       1  UNL1        0.2106
     15 O          16.0624   70.3945   -7.2799 O.2     1  UNL1       -0.2464
     16 O          19.2621   70.3571  -10.5968 O.2     1  UNL1       -0.2670
     17 N          18.2500   70.9839   -6.7104 N.ar    1  UNL1       -0.2551
     18 N          17.6571   70.3767   -8.9299 N.ar    1  UNL1       -0.2743
     19 C          17.2373   70.5728   -7.6081 C.ar    1  UNL1        0.3323
     20 C          19.5526   71.1652   -7.1623 C.ar    1  UNL1        0.0869
     21 C          19.9370   70.9727   -8.4258 C.ar    1  UNL1        0.0795
     22 C          18.9400   70.5425   -9.4273 C.ar    1  UNL1        0.2626
     23 H          16.9688   70.0898   -9.5730 H       1  UNL1        0.1734
     24 O          21.9159   74.0520   -3.1995 O.3     1  UNL1       -0.2703
     25 P          22.5807   75.0433   -2.1094 P.3     1  UNL1        0.2208
     26 O          21.4736   76.2119   -1.9468 O.co2   1  UNL1       -0.4371
     27 O          23.9502   75.5349   -2.4792 O.2     1  UNL1       -0.5170
     28 O          22.5164   74.2246   -0.7200 O.3     1  UNL1       -0.2858
     29 O          21.1246   72.3211   -0.4829 O.3     1  UNL1       -0.3258
     30 O          21.4735   73.3826    3.4923 O.3     1  UNL1       -0.3794
     31 O          22.8464   71.0548    2.5206 O.3     1  UNL1       -0.3794
     32 O          21.2377   75.4354    1.4650 O.3     1  UNL1       -0.3775
     33 C          21.9172   73.2260    2.1418 C.3     1  UNL1        0.1715
     34 C          21.8404   71.7412    1.7809 C.3     1  UNL1        0.1694
     35 C          21.0180   74.0500    1.2222 C.3     1  UNL1        0.1967
     36 C          22.0436   71.5258    0.2752 C.3     1  UNL1        0.1761
     37 C          21.2669   73.7240   -0.2515 C.3     1  UNL1        0.2704
     38 H          22.0407   72.8623    4.0815 H       1  UNL1        0.2105
     39 H          22.7069   71.1993    3.4697 H       1  UNL1        0.2105
     40 H          21.0766   75.6290    2.4012 H       1  UNL1        0.2106
     41 O          22.8954   69.2948    0.3527 O.3     1  UNL1       -0.3794
     42 C          21.8149   70.0714   -0.1306 C.3     1  UNL1        0.1693
     43 H          22.7632   68.3666    0.1021 H       1  UNL1        0.2105
@<TRIPOS>UNITY_ATOM_ATTR
2 1
charge -1
26 1
charge -1
@<TRIPOS>BOND
     1    25    28    1
     2    25    24    1
     3    25    26    1
     4    25    27    2
     5     1     4    1
     6     1    24    1
     7     1     2    1
     8     1     3    2
     9     6    11    1
    10     6    12    1
    11    29    36    1
    12    29    37    1
    13     7     9    1
    14     7    13    1
    15     8    10    1
    16     8    14    1
    17    28    37    1
    18     4     5    1
    19    30    33    1
    20    30    38    1
    21    31    34    1
    22    31    39    1
    23    32    35    1
    24    32    40    1
    25    41    42    1
    26    41    43    1
    27    15    19    2
    28    16    22    2
    29    17    12    1
    30    17    19   ar
    31    17    20   ar
    32    18    19   ar
    33    18    22   ar
    34    18    23    1
    35     9    10    1
    36     9    11    1
    37    10    12    1
    38    11     5    1
    39    33    34    1
    40    33    35    1
    41    34    36    1
    42    35    37    1
    43    36    42    1
    44    20    21   ar
    45    21    22   ar
@<TRIPOS>MOLECULE
*****
 43 45 0 0 0
SMALL
GASTEIGER

@<TRIPOS>ATOM
      1 P          19.3457   69.4274   -3.2281 P.3     1  UNL1        0.2189
      2 O          19.1246   67.8954   -3.6985 O.co2   1  UNL1       -0.4371
      3 O          18.8556   69.7429   -1.8455 O.2     1  UNL1       -0.5170
      4 O          18.6887   70.2991   -4.4224 O.3     1  UNL1       -0.3112
      5 C          17.3708   70.7916   -4.2539 C.3     1  UNL1        0.1811
      6 O          18.3167   72.5886   -5.5384 O.3     1  UNL1       -0.3308
      7 O          15.9624   74.2168   -4.6455 O.3     1  UNL1       -0.3794
      8 O          15.2607   73.4979   -7.1808 O.3     1  UNL1       -0.3779
      9 C          16.0281   72.8297   -4.9726 C.3     1  UNL1        0.1713
     10 C          16.1391   72.6477   -6.4720 C.3     1  UNL1        0.1895
     11 C          17.3702   72.2962   -4.4872 C.3     1  UNL1        0.1764
     12 C          17.6009   72.9778   -6.7221 C.3     1  UNL1        0.2383
     13 H          15.1137   74.5797   -4.9455 H       1  UNL1        0.2105
     14 H          14.3435   73.2479   -6.9887 H       1  UNL1        0.2106
     15 O          18.9209   74.1989   -8.9002 O.2     1  UNL1       -0.2464
     16 O          19.6205   70.1480  -10.9838 O.2     1  UNL1       -0.2670
     17 N          18.1383   72.2661   -7.8472 N.ar    1  UNL1       -0.2551
     18 N          19.2683   72.1809   -9.9358 N.ar    1  UNL1       -0.2743
     19 C          18.7818   72.9741   -8.8889 C.ar    1  UNL1        0.3323
     20 C          18.0250   70.8815   -7.9098 C.ar    1  UNL1        0.0869
     21 C          18.4932   70.1398   -8.9158 C.ar    1  UNL1        0.0795
     22 C          19.1791   70.8021  -10.0441 C.ar    1  UNL1        0.2626
     23 H          19.7201   72.6525  -10.6729 H       1  UNL1        0.1734
     24 O          20.9319   69.6494   -3.4465 O.3     1  UNL1       -0.2703
     25 P          21.8998   70.8748   -3.0288 P.3     1  UNL1        0.2208
     26 O          21.2324   72.1457   -3.7751 O.co2   1  UNL1       -0.4371
     27 O          23.3481   70.6544   -3.3568 O.2     1  UNL1       -0.5170
     28 O          21.5983   71.1177   -1.4619 O.3     1  UNL1       -0.2858
     29 O          23.1406   72.7074   -0.6188 O.3     1  UNL1       -0.3258
     30 O          21.2595   71.6773    2.9098 O.3     1  UNL1       -0.3794
     31 O          20.7465   74.2432    1.7262 O.3     1  UNL1       -0.3794
     32 O          21.8069   69.6479    0.9195 O.3     1  UNL1       -0.3775
     33 C          21.3439   71.9376    1.5061 C.3     1  UNL1        0.1715
     34 C          21.8053   73.3836    1.3134 C.3     1  UNL1        0.1694
     35 C          22.3415   70.9666    0.8774 C.3     1  UNL1        0.1967
     36 C          22.1753   73.6565   -0.1507 C.3     1  UNL1        0.1761
     37 C          22.6782   71.3565   -0.5630 C.3     1  UNL1        0.2704
     38 H          20.6272   72.2902    3.3150 H       1  UNL1        0.2105
     39 H          20.5222   74.0603    2.6521 H       1  UNL1        0.2105
     40 H          21.5982   69.4128    1.8366 H       1  UNL1        0.2106
     41 O          24.0318   74.9009   -0.9956 O.3     1  UNL1       -0.3794
     42 C          22.7867   75.0434   -0.3371 C.3     1  UNL1        0.1693
     43 H          24.4324   75.7757   -1.1213 H       1  UNL1        0.2105
@<TRIPOS>UNITY_ATOM_ATTR
2 1
charge -1
26 1
charge -1
@<TRIPOS>BOND
     1    25    28    1
     2    25    24    1
     3    25    26    1
     4    25    27    2
     5     1     4    1
     6     1    24    1
     7     1     2    1
     8     1     3    2
     9     6    11    1
    10     6    12    1
    11    29    36    1
    12    29    37    1
    13     7     9    1
    14     7    13    1
    15     8    10    1
    16     8    14    1
    17    28    37    1
    18     4     5    1
    19    30    33    1
    20    30    38    1
    21    31    34    1
    22    31    39    1
    23    32    35    1
    24    32    40    1
    25    41    42    1
    26    41    43    1
    27    15    19    2
    28    16    22    2
    29    17    12    1
    30    17    19   ar
    31    17    20   ar
    32    18    19   ar
    33    18    22   ar
    34    18    23    1
    35     9    10    1
    36     9    11    1
    37    10    12    1
    38    11     5    1
    39    33    34    1
    40    33    35    1
    41    34    36    1
    42    35    37    1
    43    36    42    1
    44    20    21   ar
    45    21    22   ar
@<TRIPOS>MOLECULE
*****
 43 45 0 0 0
SMALL
GASTEIGER

@<TRIPOS>ATOM
      1 P          19.4792   74.5952   -3.4660 P.3     1  UNL1        0.2189
      2 O          19.7956   75.1596   -1.9832 O.co2   1  UNL1       -0.4371
      3 O          18.5390   75.4373   -4.2774 O.2     1  UNL1       -0.5170
      4 O          19.0106   73.0681   -3.2086 O.3     1  UNL1       -0.3112
      5 C          17.6346   72.8111   -2.9884 C.3     1  UNL1        0.1811
      6 O          16.9756   70.9265   -4.3254 O.3     1  UNL1       -0.3308
      7 O          18.2720   69.2220   -2.2267 O.3     1  UNL1       -0.3794
      8 O          20.1551   69.2719   -4.1985 O.3     1  UNL1       -0.3779
      9 C          18.6664   70.5010   -2.7205 C.3     1  UNL1        0.1713
     10 C          19.2681   70.3679   -4.1039 C.3     1  UNL1        0.1895
     11 C          17.4034   71.3063   -2.9991 C.3     1  UNL1        0.1764
     12 C          18.0318   70.1958   -4.9699 C.3     1  UNL1        0.2383
     13 H          19.0620   68.6895   -2.0411 H       1  UNL1        0.2105
     14 H          20.9250   69.4289   -3.6299 H       1  UNL1        0.2106
     15 O          16.1662   69.9037   -7.0704 O.2     1  UNL1       -0.2464
     16 O          18.8437   72.2255  -10.0168 O.2     1  UNL1       -0.2670
     17 N          18.2156   70.7144   -6.2961 N.ar    1  UNL1       -0.2551
     18 N          17.5008   71.0602   -8.5357 N.ar    1  UNL1       -0.2743
     19 C          17.2181   70.5119   -7.2781 C.ar    1  UNL1        0.3323
     20 C          19.3746   71.4151   -6.6117 C.ar    1  UNL1        0.0869
     21 C          19.6296   71.9305   -7.8161 C.ar    1  UNL1        0.0795
     22 C          18.6385   71.7635   -8.8986 C.ar    1  UNL1        0.2626
     23 H          16.8203   70.9313   -9.2358 H       1  UNL1        0.1734
     24 O          20.9515   74.4198   -4.1100 O.3     1  UNL1       -0.2703
     25 P          22.1243   73.3508   -3.8022 P.3     1  UNL1        0.2208
     26 O          23.4661   74.2542   -3.8288 O.co2   1  UNL1       -0.4371
     27 O          22.1489   72.1777   -4.7386 O.2     1  UNL1       -0.5170
     28 O          21.9253   72.9623   -2.2483 O.3     1  UNL1       -0.2858
     29 O          23.3825   73.1702   -0.3910 O.3     1  UNL1       -0.3258
     30 O          21.6322   69.5495    0.5458 O.3     1  UNL1       -0.3794
     31 O          20.9420   71.8915    2.0580 O.3     1  UNL1       -0.3794
     32 O          22.2665   70.1771   -2.2079 O.3     1  UNL1       -0.3775
     33 C          21.6751   70.8784    0.0191 C.3     1  UNL1        0.1715
     34 C          22.0437   71.8334    1.1562 C.3     1  UNL1        0.1694
     35 C          22.7186   70.9405   -1.0947 C.3     1  UNL1        0.1967
     36 C          22.3697   73.2338    0.6199 C.3     1  UNL1        0.1761
     37 C          23.0047   72.3815   -1.5210 C.3     1  UNL1        0.2704
     38 H          20.9711   69.5031    1.2532 H       1  UNL1        0.2105
     39 H          20.7461   71.0008    2.3890 H       1  UNL1        0.2105
     40 H          22.0892   69.2669   -1.9251 H       1  UNL1        0.2106
     41 O          23.1634   73.3820    2.8686 O.3     1  UNL1       -0.3794
     42 C          22.8917   74.1591    1.7168 C.3     1  UNL1        0.1693
     43 H          23.4967   73.9578    3.5751 H       1  UNL1        0.2105
@<TRIPOS>UNITY_ATOM_ATTR
2 1
charge -1
26 1
charge -1
@<TRIPOS>BOND
     1    25    28    1
     2    25    24    1
     3    25    26    1
     4    25    27    2
     5     1     4    1
     6     1    24    1
     7     1     2    1
     8     1     3    2
     9     6    11    1
    10     6    12    1
    11    29    36    1
    12    29    37    1
    13     7     9    1
    14     7    13    1
    15     8    10    1
    16     8    14    1
    17    28    37    1
    18     4     5    1
    19    30    33    1
    20    30    38    1
    21    31    34    1
    22    31    39    1
    23    32    35    1
    24    32    40    1
    25    41    42    1
    26    41    43    1
    27    15    19    2
    28    16    22    2
    29    17    12    1
    30    17    19   ar
    31    17    20   ar
    32    18    19   ar
    33    18    22   ar
    34    18    23    1
    35     9    10    1
    36     9    11    1
    37    10    12    1
    38    11     5    1
    39    33    34    1
    40    33    35    1
    41    34    36    1
    42    35    37    1
    43    36    42    1
    44    20    21   ar
    45    21    22   ar
@<TRIPOS>MOLECULE
*****
 43 45 0 0 0
SMALL
GASTEIGER

@<TRIPOS>ATOM
      1 P          21.9554   71.0774   -3.0404 P.3     1  UNL1        0.2189
      2 O          23.4845   70.5954   -3.2574 O.co2   1  UNL1       -0.4371
      3 O          21.5880   72.3536   -3.7389 O.2     1  UNL1       -0.5170
      4 O          21.7729   71.0786   -1.4328 O.3     1  UNL1       -0.3112
      5 C          22.0677   72.2671   -0.7198 C.3     1  UNL1        0.1811
      6 O          21.0624   72.7108    1.4171 O.3     1  UNL1       -0.3308
      7 O          19.0427   74.3433   -0.0818 O.3     1  UNL1       -0.3794
      8 O          20.7191   76.2462    0.9208 O.3     1  UNL1       -0.3779
      9 C          20.4378   74.1819   -0.3326 C.3     1  UNL1        0.1713
     10 C          21.2482   74.9572    0.6851 C.3     1  UNL1        0.1895
     11 C          20.8099   72.7413   -0.0048 C.3     1  UNL1        0.1764
     12 C          21.1631   74.0580    1.9067 C.3     1  UNL1        0.2383
     13 H          18.7813   75.2558   -0.2844 H       1  UNL1        0.2105
     14 H          20.7962   76.7799    0.1146 H       1  UNL1        0.2106
     15 O          23.7015   74.9230    1.0200 O.2     1  UNL1       -0.2464
     16 O          25.5410   74.4219    5.2160 O.2     1  UNL1       -0.2670
     17 N          22.3230   74.1635    2.7463 N.ar    1  UNL1       -0.2551
     18 N          24.6153   74.6730    3.1100 N.ar    1  UNL1       -0.2743
     19 C          23.5507   74.6077    2.2021 C.ar    1  UNL1        0.3323
     20 C          22.2363   73.8289    4.0933 C.ar    1  UNL1        0.0869
     21 C          23.2612   73.8955    4.9455 C.ar    1  UNL1        0.0795
     22 C          24.5792   74.3500    4.4573 C.ar    1  UNL1        0.2626
     23 H          25.4805   74.9794    2.7533 H       1  UNL1        0.1734
     24 O          21.0985   69.7869   -3.5024 O.3     1  UNL1       -0.2703
     25 P          19.5301   69.6263   -3.8590 P.3     1  UNL1        0.2208
     26 O          18.8375   70.8378   -3.0404 O.co2   1  UNL1       -0.4371
     27 O          18.9652   68.2695   -3.5528 O.2     1  UNL1       -0.5170
     28 O          19.4166   70.0640   -5.4084 O.3     1  UNL1       -0.2858
     29 O          19.8182   72.0352   -6.6613 O.3     1  UNL1       -0.3258
     30 O          16.1316   71.0077   -8.2116 O.3     1  UNL1       -0.3794
     31 O          18.4890   70.6689   -9.8165 O.3     1  UNL1       -0.3794
     32 O          16.6682   70.6308   -5.3921 O.3     1  UNL1       -0.3775
     33 C          17.4330   70.7608   -7.6724 C.3     1  UNL1        0.1715
     34 C          18.4660   71.4068   -8.5978 C.3     1  UNL1        0.1694
     35 C          17.5152   71.3633   -6.2711 C.3     1  UNL1        0.1967
     36 C          19.8583   71.4166   -7.9526 C.3     1  UNL1        0.1761
     37 C          18.9505   71.3689   -5.7420 C.3     1  UNL1        0.2704
     38 H          16.0726   70.6273   -9.1012 H       1  UNL1        0.2105
     39 H          17.6038   70.6701  -10.2134 H       1  UNL1        0.2105
     40 H          15.7625   70.6350   -5.7379 H       1  UNL1        0.2106
     41 O          22.0068   72.4615   -7.9871 O.3     1  UNL1       -0.3794
     42 C          20.8709   72.1957   -8.7892 C.3     1  UNL1        0.1693
     43 H          22.6600   72.9567   -8.5066 H       1  UNL1        0.2105
@<TRIPOS>UNITY_ATOM_ATTR
2 1
charge -1
26 1
charge -1
@<TRIPOS>BOND
     1    25    28    1
     2    25    24    1
     3    25    26    1
     4    25    27    2
     5     1     4    1
     6     1    24    1
     7     1     2    1
     8     1     3    2
     9     6    11    1
    10     6    12    1
    11    29    36    1
    12    29    37    1
    13     7     9    1
    14     7    13    1
    15     8    10    1
    16     8    14    1
    17    28    37    1
    18     4     5    1
    19    30    33    1
    20    30    38    1
    21    31    34    1
    22    31    39    1
    23    32    35    1
    24    32    40    1
    25    41    42    1
    26    41    43    1
    27    15    19    2
    28    16    22    2
    29    17    12    1
    30    17    19   ar
    31    17    20   ar
    32    18    19   ar
    33    18    22   ar
    34    18    23    1
    35     9    10    1
    36     9    11    1
    37    10    12    1
    38    11     5    1
    39    33    34    1
    40    33    35    1
    41    34    36    1
    42    35    37    1
    43    36    42    1
    44    20    21   ar
    45    21    22   ar
@<TRIPOS>MOLECULE
*****
 43 45 0 0 0
SMALL
GASTEIGER

@<TRIPOS>ATOM
      1 P          22.6124   73.1503   -4.6668 P.3     1  UNL1        0.2189
      2 O          21.9269   74.6105   -4.5435 O.co2   1  UNL1       -0.4371
      3 O          24.0053   73.0556   -4.1169 O.2     1  UNL1       -0.5170
      4 O          22.4479   72.7749   -6.2320 O.3     1  UNL1       -0.3112
      5 C          21.1984   73.0125   -6.8566 C.3     1  UNL1        0.1811
      6 O          19.1392   71.7759   -6.7885 O.3     1  UNL1       -0.3308
      7 O          20.4196   69.8984   -8.7445 O.3     1  UNL1       -0.3794
      8 O          18.8198   71.4221  -10.3431 O.3     1  UNL1       -0.3779
      9 C          20.5487   71.3151   -8.6370 C.3     1  UNL1        0.1713
     10 C          19.2948   71.9972   -9.1430 C.3     1  UNL1        0.1895
     11 C          20.5323   71.6767   -7.1570 C.3     1  UNL1        0.1764
     12 C          18.3370   71.7986   -7.9804 C.3     1  UNL1        0.2383
     13 H          20.4278   69.6433   -9.6809 H       1  UNL1        0.2105
     14 H          19.4638   71.5752  -11.0521 H       1  UNL1        0.2106
     15 O          15.9107   71.6174   -6.5458 O.2     1  UNL1       -0.2464
     16 O          14.7247   75.9326   -7.6477 O.2     1  UNL1       -0.2670
     17 N          17.3756   72.8597   -7.8754 N.ar    1  UNL1       -0.2551
     18 N          15.3223   73.7662   -7.0955 N.ar    1  UNL1       -0.2743
     19 C          16.1883   72.6660   -7.1316 C.ar    1  UNL1        0.3323
     20 C          17.6146   74.0762   -8.5054 C.ar    1  UNL1        0.0869
     21 C          16.7780   75.1152   -8.4623 C.ar    1  UNL1        0.0795
     22 C          15.5147   74.9954   -7.7062 C.ar    1  UNL1        0.2626
     23 H          14.4885   73.6543   -6.5835 H       1  UNL1        0.1734
     24 O          21.5373   72.1820   -3.9459 O.3     1  UNL1       -0.2703
     25 P          21.7371   70.8266   -3.0881 P.3     1  UNL1        0.2208
     26 O          23.3261   70.5452   -3.2037 O.co2   1  UNL1       -0.4371
     27 O          20.8717   69.6834   -3.5334 O.2     1  UNL1       -0.5170
     28 O          21.5134   71.2770   -1.5545 O.3     1  UNL1       -0.2858
     29 O          23.2145   72.6851   -0.6943 O.3     1  UNL1       -0.3258
     30 O          21.3340   71.6852    2.8434 O.3     1  UNL1       -0.3794
     31 O          21.0287   74.3333    1.7745 O.3     1  UNL1       -0.3794
     32 O          21.6451   69.6980    0.7616 O.3     1  UNL1       -0.3775
     33 C          21.4075   71.9942    1.4489 C.3     1  UNL1        0.1715
     34 C          21.9942   73.3992    1.2993 C.3     1  UNL1        0.1694
     35 C          22.2966   70.9637    0.7555 C.3     1  UNL1        0.1967
     36 C          22.3516   73.6975   -0.1630 C.3     1  UNL1        0.1761
     37 C          22.6322   71.3803   -0.6777 C.3     1  UNL1        0.2704
     38 H          20.7705   72.3355    3.2895 H       1  UNL1        0.2105
     39 H          20.8114   74.1336    2.6987 H       1  UNL1        0.2105
     40 H          21.4383   69.4453    1.6744 H       1  UNL1        0.2106
     41 O          24.4400   74.8404    0.0411 O.3     1  UNL1       -0.3794
     42 C          23.0824   75.0301   -0.3128 C.3     1  UNL1        0.1693
     43 H          24.9176   75.6802   -0.0498 H       1  UNL1        0.2105
@<TRIPOS>UNITY_ATOM_ATTR
2 1
charge -1
26 1
charge -1
@<TRIPOS>BOND
     1    25    28    1
     2    25    24    1
     3    25    26    1
     4    25    27    2
     5     1     4    1
     6     1    24    1
     7     1     2    1
     8     1     3    2
     9     6    11    1
    10     6    12    1
    11    29    36    1
    12    29    37    1
    13     7     9    1
    14     7    13    1
    15     8    10    1
    16     8    14    1
    17    28    37    1
    18     4     5    1
    19    30    33    1
    20    30    38    1
    21    31    34    1
    22    31    39    1
    23    32    35    1
    24    32    40    1
    25    41    42    1
    26    41    43    1
    27    15    19    2
    28    16    22    2
    29    17    12    1
    30    17    19   ar
    31    17    20   ar
    32    18    19   ar
    33    18    22   ar
    34    18    23    1
    35     9    10    1
    36     9    11    1
    37    10    12    1
    38    11     5    1
    39    33    34    1
    40    33    35    1
    41    34    36    1
    42    35    37    1
    43    36    42    1
    44    20    21   ar
    45    21    22   ar
