
 OpenBabel04092510423D

 45 46  0  0  1  0  0  0  0  0999 V2000
    0.9061   -4.1495    0.9346 O   0  0  0  0  0  0  0  0  0  0  0  0
    0.8190   -3.8522   -0.4537 C   0  0  0  0  0  0  0  0  0  0  0  0
    0.9422   -2.3437   -0.7013 C   0  0  1  0  0  0  0  0  0  0  0  0
    0.7981   -2.1331   -2.1018 O   0  0  0  0  0  0  0  0  0  0  0  0
    1.2888   -0.8714   -2.5218 C   0  0  1  0  0  0  0  0  0  0  0  0
    1.0933   -0.7818   -3.9383 O   0  0  0  0  0  0  0  0  0  0  0  0
    1.9942   -1.5623   -4.7554 C   0  0  1  0  0  0  0  0  0  0  0  0
    1.8335   -3.0916   -4.5463 C   0  0  2  0  0  0  0  0  0  0  0  0
    2.5465   -3.5388   -3.3738 O   0  0  0  0  0  0  0  0  0  0  0  0
    2.3480   -3.9567   -5.7073 C   0  0  1  0  0  0  0  0  0  0  0  0
    1.8773   -5.3119   -5.5902 O   0  0  0  0  0  0  0  0  0  0  0  0
    1.9590   -3.3666   -7.0687 C   0  0  2  0  0  0  0  0  0  0  0  0
    2.5739   -4.0789   -8.1351 O   0  0  0  0  0  0  0  0  0  0  0  0
    2.3880   -2.0163   -7.1395 O   0  0  0  0  0  0  0  0  0  0  0  0
    1.6674   -1.1880   -6.2186 C   0  0  2  0  0  0  0  0  0  0  0  0
    2.0498    0.2649   -6.5415 C   0  0  0  0  0  0  0  0  0  0  0  0
    3.4591    0.4450   -6.4057 O   0  0  0  0  0  0  0  0  0  0  0  0
    0.4756    0.2584   -1.8466 C   0  0  2  0  0  0  0  0  0  0  0  0
    1.1979    1.5038   -1.9212 O   0  0  0  0  0  0  0  0  0  0  0  0
    0.1484   -0.0139   -0.3665 C   0  0  1  0  0  0  0  0  0  0  0  0
   -0.9566    0.8381   -0.0015 O   0  0  0  0  0  0  0  0  0  0  0  0
   -0.1396   -1.4878   -0.0319 C   0  0  2  0  0  0  0  0  0  0  0  0
   -0.2124   -1.6253    1.3846 O   0  0  0  0  0  0  0  0  0  0  0  0
    0.5904   -5.0666    1.0340 H   0  0  0  0  0  0  0  0  0  0  0  0
   -0.1320   -4.2284   -0.8511 H   0  0  0  0  0  0  0  0  0  0  0  0
    1.6195   -4.3795   -0.9697 H   0  0  0  0  0  0  0  0  0  0  0  0
    1.9379   -2.0355   -0.3515 H   0  0  0  0  0  0  0  0  0  0  0  0
    2.3580   -0.7644   -2.2988 H   0  0  0  0  0  0  0  0  0  0  0  0
    3.0235   -1.2706   -4.5122 H   0  0  0  0  0  0  0  0  0  0  0  0
    0.7783   -3.3232   -4.3626 H   0  0  0  0  0  0  0  0  0  0  0  0
    3.4481   -3.1739   -3.4003 H   0  0  0  0  0  0  0  0  0  0  0  0
    3.4375   -4.0218   -5.6429 H   0  0  0  0  0  0  0  0  0  0  0  0
    1.0040   -5.3043   -5.1650 H   0  0  0  0  0  0  0  0  0  0  0  0
    0.8775   -3.4340   -7.2351 H   0  0  0  0  0  0  0  0  0  0  0  0
    3.3347   -4.5580   -7.7659 H   0  0  0  0  0  0  0  0  0  0  0  0
    0.5890   -1.2896   -6.4024 H   0  0  0  0  0  0  0  0  0  0  0  0
    1.7945    0.4977   -7.5815 H   0  0  0  0  0  0  0  0  0  0  0  0
    1.5359    0.9779   -5.8924 H   0  0  0  0  0  0  0  0  0  0  0  0
    3.8634   -0.2023   -7.0183 H   0  0  0  0  0  0  0  0  0  0  0  0
   -0.4561    0.4206   -2.4025 H   0  0  0  0  0  0  0  0  0  0  0  0
    0.7684    2.1064   -1.2818 H   0  0  0  0  0  0  0  0  0  0  0  0
    0.9798    0.3321    0.2614 H   0  0  0  0  0  0  0  0  0  0  0  0
   -1.7773    0.3298   -0.1205 H   0  0  0  0  0  0  0  0  0  0  0  0
   -1.1249   -1.7612   -0.4284 H   0  0  0  0  0  0  0  0  0  0  0  0
    0.6039   -2.0610    1.6991 H   0  0  0  0  0  0  0  0  0  0  0  0
  1  2  1  0  0  0  0
  1 24  1  0  0  0  0
  2 25  1  0  0  0  0
  2 26  1  0  0  0  0
  3  4  1  0  0  0  0
  3 22  1  0  0  0  0
  3  2  1  0  0  0  0
  3 27  1  1  0  0  0
  4  5  1  0  0  0  0
  5 18  1  0  0  0  0
  5  6  1  0  0  0  0
  5 28  1  1  0  0  0
  6  7  1  0  0  0  0
  7  8  1  0  0  0  0
  7 15  1  0  0  0  0
  7 29  1  1  0  0  0
  8  9  1  0  0  0  0
  8 10  1  0  0  0  0
  8 30  1  1  0  0  0
  9 31  1  0  0  0  0
 10 11  1  0  0  0  0
 10 12  1  0  0  0  0
 10 32  1  1  0  0  0
 11 33  1  0  0  0  0
 12 14  1  0  0  0  0
 12 13  1  0  0  0  0
 12 34  1  6  0  0  0
 13 35  1  0  0  0  0
 14 15  1  0  0  0  0
 15 16  1  0  0  0  0
 15 36  1  6  0  0  0
 16 17  1  0  0  0  0
 16 37  1  0  0  0  0
 16 38  1  0  0  0  0
 17 39  1  0  0  0  0
 18 19  1  0  0  0  0
 18 20  1  0  0  0  0
 18 40  1  6  0  0  0
 19 41  1  0  0  0  0
 20 21  1  0  0  0  0
 20 22  1  0  0  0  0
 20 42  1  1  0  0  0
 21 43  1  0  0  0  0
 22 23  1  0  0  0  0
 22 44  1  6  0  0  0
 23 45  1  0  0  0  0
M  END
$$$$
