


 31 32  0  0  0  0  0  0  0  0999 V2000
   -6.5711   15.2944    7.5862 O   0  0  0  0  0  0  0  0  0  0  0  0
   -7.3079   11.7831    7.8469 C   0  0  0  0  0  0  0  0  0  0  0  0
   -7.3835   13.1917    8.0382 O   0  0  0  0  0  0  0  0  0  0  0  0
   -6.3887   13.8990    7.3178 C   0  0  0  0  0  0  0  0  0  0  0  0
   -4.9848   13.4869    7.8207 C   0  0  0  0  0  0  0  0  0  0  0  0
   -3.9815   13.8585    6.8545 O   0  0  0  0  0  0  0  0  0  0  0  0
   -4.8442   11.9782    8.0964 C   0  0  0  0  0  0  0  0  0  0  0  0
   -3.7066   11.7989    8.9647 O   0  0  0  0  0  0  0  0  0  0  0  0
   -6.1049   11.3089    8.6708 C   0  0  0  0  0  0  0  0  0  0  0  0
   -5.9075    9.8976    8.6740 O   0  0  0  0  0  0  0  0  0  0  0  0
   -3.1723   13.3670    7.0994 H   0  0  0  0  0  0  0  0  0  0  0  0
   -4.0306   11.7833    9.8816 H   0  0  0  0  0  0  0  0  0  0  0  0
   -6.4355    9.5061    7.9509 H   0  0  0  0  0  0  0  0  0  0  0  0
   -8.4987   10.2951    9.3655 O   0  0  0  0  0  0  0  0  0  0  0  0
   -8.6576   11.1934    8.2742 C   0  0  0  0  0  0  0  0  0  0  0  0
   -9.3925   10.1487    9.7264 H   0  0  0  0  0  0  0  0  0  0  0  0
   -7.5835   15.6274    8.5623 C   0  0  0  0  0  0  0  0  0  0  0  0
   -6.9966   15.9356    9.9654 C   0  0  0  0  0  0  0  0  0  0  0  0
   -6.7224   14.7224   10.6977 O   0  0  0  0  0  0  0  0  0  0  0  0
   -7.9071   16.7780   10.8722 C   0  0  0  0  0  0  0  0  0  0  0  0
   -7.1793   17.2894   12.0038 O   0  0  0  0  0  0  0  0  0  0  0  0
   -8.5745   17.9221   10.0986 C   0  0  0  0  0  0  0  0  0  0  0  0
   -9.5371   18.5952   10.9004 O   0  0  0  0  0  0  0  0  0  0  0  0
   -9.2412   17.3988    8.9610 O   0  0  0  0  0  0  0  0  0  0  0  0
   -8.3129   16.8708    8.0057 C   0  0  0  0  0  0  0  0  0  0  0  0
   -7.5040   14.1451   10.6466 H   0  0  0  0  0  0  0  0  0  0  0  0
   -6.2574   17.4433   11.7395 H   0  0  0  0  0  0  0  0  0  0  0  0
   -9.7837   17.9964   11.6251 H   0  0  0  0  0  0  0  0  0  0  0  0
   -9.1210   16.5467    6.7395 C   0  0  0  0  0  0  0  0  0  0  0  0
   -8.2570   16.4899    5.6049 O   0  0  0  0  0  0  0  0  0  0  0  0
   -7.5916   15.8052    5.8198 H   0  0  0  0  0  0  0  0  0  0  0  0
 14 15  1  0
 14 16  1  0
  2  3  1  0
  2  9  1  0
  2 15  1  0
  3  4  1  0
  4  5  1  0
  4  1  1  0
  1 17  1  0
 17 18  1  0
 17 25  1  0
 18 19  1  0
 18 20  1  0
 19 26  1  0
 20 21  1  0
 20 22  1  0
 21 27  1  0
 22 24  1  0
 22 23  1  0
 23 28  1  0
 24 25  1  0
 25 29  1  0
 29 30  1  0
 30 31  1  0
  5  6  1  0
  5  7  1  0
  6 11  1  0
  7  8  1  0
  7  9  1  0
  8 12  1  0
  9 10  1  0
 10 13  1  0
M  END
> <minimizedAffinity>
-4.61249

> <CNNscore>
0.9522734284

> <CNNaffinity>
3.3612596989

> <CNN_VS>
3.2008383274

> <CNNaffinity_variance>
0.3606961668

$$$$



 31 32  0  0  0  0  0  0  0  0999 V2000
   -5.7547   15.3505    7.6310 O   0  0  0  0  0  0  0  0  0  0  0  0
   -7.8019   12.3927    7.6617 C   0  0  0  0  0  0  0  0  0  0  0  0
   -7.3516   13.7202    7.9099 O   0  0  0  0  0  0  0  0  0  0  0  0
   -6.0941   13.9946    7.3162 C   0  0  0  0  0  0  0  0  0  0  0  0
   -5.0139   13.0694    7.9253 C   0  0  0  0  0  0  0  0  0  0  0  0
   -3.8522   13.0327    7.0723 O   0  0  0  0  0  0  0  0  0  0  0  0
   -5.4903   11.6211    8.1428 C   0  0  0  0  0  0  0  0  0  0  0  0
   -4.6026   11.0107    9.1017 O   0  0  0  0  0  0  0  0  0  0  0  0
   -6.9625   11.4853    8.5689 C   0  0  0  0  0  0  0  0  0  0  0  0
   -7.3219   10.1070    8.5250 O   0  0  0  0  0  0  0  0  0  0  0  0
   -3.3222   12.2655    7.3669 H   0  0  0  0  0  0  0  0  0  0  0  0
   -4.9993   11.1143    9.9837 H   0  0  0  0  0  0  0  0  0  0  0  0
   -7.8831    9.9548    7.7396 H   0  0  0  0  0  0  0  0  0  0  0  0
   -9.6536   13.2665    8.9830 O   0  0  0  0  0  0  0  0  0  0  0  0
   -9.3104   12.3659    7.9369 C   0  0  0  0  0  0  0  0  0  0  0  0
  -10.6222   13.3706    8.9419 H   0  0  0  0  0  0  0  0  0  0  0  0
   -5.9761   16.3212    6.5835 C   0  0  0  0  0  0  0  0  0  0  0  0
   -7.3356   17.0578    6.7153 C   0  0  0  0  0  0  0  0  0  0  0  0
   -8.4159   16.2658    6.1778 O   0  0  0  0  0  0  0  0  0  0  0  0
   -7.4060   18.4117    5.9920 C   0  0  0  0  0  0  0  0  0  0  0  0
   -8.5523   19.1685    6.4220 O   0  0  0  0  0  0  0  0  0  0  0  0
   -6.1196   19.2245    6.1856 C   0  0  0  0  0  0  0  0  0  0  0  0
   -6.1254   20.3993    5.3840 O   0  0  0  0  0  0  0  0  0  0  0  0
   -5.0015   18.4395    5.8038 O   0  0  0  0  0  0  0  0  0  0  0  0
   -4.8112   17.3308    6.6914 C   0  0  0  0  0  0  0  0  0  0  0  0
   -8.1558   15.9415    5.2981 H   0  0  0  0  0  0  0  0  0  0  0  0
   -8.7388   18.9536    7.3508 H   0  0  0  0  0  0  0  0  0  0  0  0
   -6.7734   20.2641    4.6723 H   0  0  0  0  0  0  0  0  0  0  0  0
   -3.4618   16.6964    6.3201 C   0  0  0  0  0  0  0  0  0  0  0  0
   -3.6670   15.5499    5.4951 O   0  0  0  0  0  0  0  0  0  0  0  0
   -4.1636   15.8758    4.7173 H   0  0  0  0  0  0  0  0  0  0  0  0
 14 15  1  0
 14 16  1  0
  2  3  1  0
  2  9  1  0
  2 15  1  0
  3  4  1  0
  4  5  1  0
  4  1  1  0
  1 17  1  0
 17 18  1  0
 17 25  1  0
 18 19  1  0
 18 20  1  0
 19 26  1  0
 20 21  1  0
 20 22  1  0
 21 27  1  0
 22 24  1  0
 22 23  1  0
 23 28  1  0
 24 25  1  0
 25 29  1  0
 29 30  1  0
 30 31  1  0
  5  6  1  0
  5  7  1  0
  6 11  1  0
  7  8  1  0
  7  9  1  0
  8 12  1  0
  9 10  1  0
 10 13  1  0
M  END
> <minimizedAffinity>
-4.63538

> <CNNscore>
0.9454393387

> <CNNaffinity>
3.3866195679

> <CNN_VS>
3.2018432617

> <CNNaffinity_variance>
0.2255835980

$$$$



 31 32  0  0  0  0  0  0  0  0999 V2000
   -8.6085   14.1560    6.5107 O   0  0  0  0  0  0  0  0  0  0  0  0
   -5.5019   13.2510    8.0823 C   0  0  0  0  0  0  0  0  0  0  0  0
   -6.4351   13.6996    7.1054 O   0  0  0  0  0  0  0  0  0  0  0  0
   -7.7728   13.6828    7.5738 C   0  0  0  0  0  0  0  0  0  0  0  0
   -8.1914   12.2323    7.9120 C   0  0  0  0  0  0  0  0  0  0  0  0
   -9.3578   12.2361    8.7592 O   0  0  0  0  0  0  0  0  0  0  0  0
   -7.0915   11.4197    8.6205 C   0  0  0  0  0  0  0  0  0  0  0  0
   -7.4129   10.0226    8.4626 O   0  0  0  0  0  0  0  0  0  0  0  0
   -5.6596   11.7273    8.1489 C   0  0  0  0  0  0  0  0  0  0  0  0
   -4.7439   11.0740    9.0237 O   0  0  0  0  0  0  0  0  0  0  0  0
   -9.4255   11.3351    9.1335 H   0  0  0  0  0  0  0  0  0  0  0  0
   -6.9402    9.6945    7.6783 H   0  0  0  0  0  0  0  0  0  0  0  0
   -4.3375   11.7436    9.6081 H   0  0  0  0  0  0  0  0  0  0  0  0
   -4.2092   14.5784    6.4995 O   0  0  0  0  0  0  0  0  0  0  0  0
   -4.1156   13.7395    7.6443 C   0  0  0  0  0  0  0  0  0  0  0  0
   -3.3478   15.0291    6.4246 H   0  0  0  0  0  0  0  0  0  0  0  0
   -9.3247   15.3854    6.7637 C   0  0  0  0  0  0  0  0  0  0  0  0
   -9.6370   15.6081    8.2674 C   0  0  0  0  0  0  0  0  0  0  0  0
  -10.8078   14.8693    8.6754 O   0  0  0  0  0  0  0  0  0  0  0  0
   -9.9042   17.0698    8.6589 C   0  0  0  0  0  0  0  0  0  0  0  0
   -9.8610   17.2385   10.0877 O   0  0  0  0  0  0  0  0  0  0  0  0
   -8.9223   18.0281    7.9730 C   0  0  0  0  0  0  0  0  0  0  0  0
   -9.2752   19.3855    8.2091 O   0  0  0  0  0  0  0  0  0  0  0  0
   -8.9455   17.8071    6.5719 O   0  0  0  0  0  0  0  0  0  0  0  0
   -8.4167   16.5186    6.2353 C   0  0  0  0  0  0  0  0  0  0  0  0
  -11.5190   15.0340    8.0321 H   0  0  0  0  0  0  0  0  0  0  0  0
   -9.2238   16.6060   10.4584 H   0  0  0  0  0  0  0  0  0  0  0  0
  -10.2115   19.4028    8.4693 H   0  0  0  0  0  0  0  0  0  0  0  0
   -8.2827   16.4841    4.7048 C   0  0  0  0  0  0  0  0  0  0  0  0
   -8.2622   17.8120    4.1822 O   0  0  0  0  0  0  0  0  0  0  0  0
   -7.5072   18.2523    4.6226 H   0  0  0  0  0  0  0  0  0  0  0  0
 14 15  1  0
 14 16  1  0
  2  3  1  0
  2  9  1  0
  2 15  1  0
  3  4  1  0
  4  5  1  0
  4  1  1  0
  1 17  1  0
 17 18  1  0
 17 25  1  0
 18 19  1  0
 18 20  1  0
 19 26  1  0
 20 21  1  0
 20 22  1  0
 21 27  1  0
 22 24  1  0
 22 23  1  0
 23 28  1  0
 24 25  1  0
 25 29  1  0
 29 30  1  0
 30 31  1  0
  5  6  1  0
  5  7  1  0
  6 11  1  0
  7  8  1  0
  7  9  1  0
  8 12  1  0
  9 10  1  0
 10 13  1  0
M  END
> <minimizedAffinity>
-4.22757

> <CNNscore>
0.9317737818

> <CNNaffinity>
3.4462337494

> <CNN_VS>
3.2111103535

> <CNNaffinity_variance>
0.4880076647

$$$$



 31 32  0  0  0  0  0  0  0  0999 V2000
   -6.8285   15.2649    7.3563 O   0  0  0  0  0  0  0  0  0  0  0  0
   -5.4815   16.9177    4.4590 C   0  0  0  0  0  0  0  0  0  0  0  0
   -5.5655   16.1251    5.6385 O   0  0  0  0  0  0  0  0  0  0  0  0
   -6.8724   16.0905    6.1862 C   0  0  0  0  0  0  0  0  0  0  0  0
   -7.3000   17.5150    6.6123 C   0  0  0  0  0  0  0  0  0  0  0  0
   -8.7312   17.5768    6.7746 O   0  0  0  0  0  0  0  0  0  0  0  0
   -6.8869   18.6106    5.6118 C   0  0  0  0  0  0  0  0  0  0  0  0
   -6.9178   19.8718    6.3108 O   0  0  0  0  0  0  0  0  0  0  0  0
   -5.5293   18.3772    4.9264 C   0  0  0  0  0  0  0  0  0  0  0  0
   -5.3756   19.3385    3.8858 O   0  0  0  0  0  0  0  0  0  0  0  0
   -8.9618   18.5269    6.7975 H   0  0  0  0  0  0  0  0  0  0  0  0
   -6.0219   20.0498    6.6450 H   0  0  0  0  0  0  0  0  0  0  0  0
   -5.5088   18.8932    3.0261 H   0  0  0  0  0  0  0  0  0  0  0  0
   -3.3801   15.6875    4.5549 O   0  0  0  0  0  0  0  0  0  0  0  0
   -4.1938   16.5134    3.7307 C   0  0  0  0  0  0  0  0  0  0  0  0
   -2.7170   15.2865    3.9633 H   0  0  0  0  0  0  0  0  0  0  0  0
   -6.4714   13.8806    7.1451 C   0  0  0  0  0  0  0  0  0  0  0  0
   -5.0936   13.5087    7.7546 C   0  0  0  0  0  0  0  0  0  0  0  0
   -4.0116   13.8968    6.8817 O   0  0  0  0  0  0  0  0  0  0  0  0
   -4.8957   12.0099    8.0295 C   0  0  0  0  0  0  0  0  0  0  0  0
   -3.7544   11.7862    8.8776 O   0  0  0  0  0  0  0  0  0  0  0  0
   -6.1525   11.3752    8.6382 C   0  0  0  0  0  0  0  0  0  0  0  0
   -6.0210    9.9626    8.7384 O   0  0  0  0  0  0  0  0  0  0  0  0
   -7.2712   11.6532    7.8115 O   0  0  0  0  0  0  0  0  0  0  0  0
   -7.5904   13.0501    7.8130 C   0  0  0  0  0  0  0  0  0  0  0  0
   -4.2116   13.5859    5.9817 H   0  0  0  0  0  0  0  0  0  0  0  0
   -3.6584   12.5428    9.4791 H   0  0  0  0  0  0  0  0  0  0  0  0
   -5.3222    9.6898    8.1204 H   0  0  0  0  0  0  0  0  0  0  0  0
   -8.9328   13.1956    7.0794 C   0  0  0  0  0  0  0  0  0  0  0  0
   -9.6510   14.3205    7.5851 O   0  0  0  0  0  0  0  0  0  0  0  0
   -9.0577   15.0875    7.4531 H   0  0  0  0  0  0  0  0  0  0  0  0
 14 15  1  0
 14 16  1  0
  2  3  1  0
  2  9  1  0
  2 15  1  0
  3  4  1  0
  4  5  1  0
  4  1  1  0
  1 17  1  0
 17 18  1  0
 17 25  1  0
 18 19  1  0
 18 20  1  0
 19 26  1  0
 20 21  1  0
 20 22  1  0
 21 27  1  0
 22 24  1  0
 22 23  1  0
 23 28  1  0
 24 25  1  0
 25 29  1  0
 29 30  1  0
 30 31  1  0
  5  6  1  0
  5  7  1  0
  6 11  1  0
  7  8  1  0
  7  9  1  0
  8 12  1  0
  9 10  1  0
 10 13  1  0
M  END
> <minimizedAffinity>
-5.18323

> <CNNscore>
0.9227634072

> <CNNaffinity>
3.2675182819

> <CNN_VS>
3.0151462555

> <CNNaffinity_variance>
0.3804309368

$$$$



 31 32  0  0  0  0  0  0  0  0999 V2000
   -8.9023   13.8771    6.5711 O   0  0  0  0  0  0  0  0  0  0  0  0
   -5.6436   13.2445    7.9573 C   0  0  0  0  0  0  0  0  0  0  0  0
   -6.6682   13.5878    7.0305 O   0  0  0  0  0  0  0  0  0  0  0  0
   -7.9673   13.5070    7.5917 C   0  0  0  0  0  0  0  0  0  0  0  0
   -8.2645   12.0496    8.0176 C   0  0  0  0  0  0  0  0  0  0  0  0
   -9.3691   12.0176    8.9435 O   0  0  0  0  0  0  0  0  0  0  0  0
   -7.0677   11.3420    8.6802 C   0  0  0  0  0  0  0  0  0  0  0  0
   -7.3050    9.9215    8.6026 O   0  0  0  0  0  0  0  0  0  0  0  0
   -5.6945   11.7185    8.0973 C   0  0  0  0  0  0  0  0  0  0  0  0
   -4.6806   11.1654    8.9320 O   0  0  0  0  0  0  0  0  0  0  0  0
   -9.3512   11.1321    9.3582 H   0  0  0  0  0  0  0  0  0  0  0  0
   -6.8652    9.5889    7.8013 H   0  0  0  0  0  0  0  0  0  0  0  0
   -4.2814   11.8854    9.4585 H   0  0  0  0  0  0  0  0  0  0  0  0
   -4.5279   15.0591    6.7738 O   0  0  0  0  0  0  0  0  0  0  0  0
   -4.3256   13.7999    7.4038 C   0  0  0  0  0  0  0  0  0  0  0  0
   -3.6417   15.4499    6.6621 H   0  0  0  0  0  0  0  0  0  0  0  0
   -9.1719   15.2906    6.4377 C   0  0  0  0  0  0  0  0  0  0  0  0
   -8.3945   15.9496    5.2674 C   0  0  0  0  0  0  0  0  0  0  0  0
   -7.0398   16.2677    5.6505 O   0  0  0  0  0  0  0  0  0  0  0  0
   -9.0043   17.2610    4.7485 C   0  0  0  0  0  0  0  0  0  0  0  0
   -8.4318   17.6312    3.4808 O   0  0  0  0  0  0  0  0  0  0  0  0
  -10.5322   17.1730    4.6449 C   0  0  0  0  0  0  0  0  0  0  0  0
  -11.1016   18.4356    4.3219 O   0  0  0  0  0  0  0  0  0  0  0  0
  -11.0680   16.7571    5.8908 O   0  0  0  0  0  0  0  0  0  0  0  0
  -10.6940   15.4085    6.1987 C   0  0  0  0  0  0  0  0  0  0  0  0
   -7.0596   16.7330    6.5048 H   0  0  0  0  0  0  0  0  0  0  0  0
   -8.1987   16.8232    2.9947 H   0  0  0  0  0  0  0  0  0  0  0  0
  -10.4488   19.1179    4.5521 H   0  0  0  0  0  0  0  0  0  0  0  0
  -11.5059   14.9986    7.4374 C   0  0  0  0  0  0  0  0  0  0  0  0
  -11.4048   16.0026    8.4468 O   0  0  0  0  0  0  0  0  0  0  0  0
  -11.7331   16.8244    8.0288 H   0  0  0  0  0  0  0  0  0  0  0  0
 14 15  1  0
 14 16  1  0
  2  3  1  0
  2  9  1  0
  2 15  1  0
  3  4  1  0
  4  5  1  0
  4  1  1  0
  1 17  1  0
 17 18  1  0
 17 25  1  0
 18 19  1  0
 18 20  1  0
 19 26  1  0
 20 21  1  0
 20 22  1  0
 21 27  1  0
 22 24  1  0
 22 23  1  0
 23 28  1  0
 24 25  1  0
 25 29  1  0
 29 30  1  0
 30 31  1  0
  5  6  1  0
  5  7  1  0
  6 11  1  0
  7  8  1  0
  7  9  1  0
  8 12  1  0
  9 10  1  0
 10 13  1  0
M  END
> <minimizedAffinity>
-4.30441

> <CNNscore>
0.9210541844

> <CNNaffinity>
3.3844480515

> <CNN_VS>
3.1172599792

> <CNNaffinity_variance>
0.4580778182

$$$$



 31 32  0  0  0  0  0  0  0  0999 V2000
   -4.6937   14.6328    8.5897 O   0  0  0  0  0  0  0  0  0  0  0  0
   -7.8080   13.4499    7.2325 C   0  0  0  0  0  0  0  0  0  0  0  0
   -6.8709   14.2213    7.9762 O   0  0  0  0  0  0  0  0  0  0  0  0
   -5.5347   13.7821    7.8012 C   0  0  0  0  0  0  0  0  0  0  0  0
   -5.3866   12.3333    8.3234 C   0  0  0  0  0  0  0  0  0  0  0  0
   -4.1892   11.7326    7.7908 O   0  0  0  0  0  0  0  0  0  0  0  0
   -6.5755   11.4219    7.9661 C   0  0  0  0  0  0  0  0  0  0  0  0
   -6.5445   10.2942    8.8648 O   0  0  0  0  0  0  0  0  0  0  0  0
   -7.9472   12.1186    7.9803 C   0  0  0  0  0  0  0  0  0  0  0  0
   -8.9140   11.2277    7.4303 O   0  0  0  0  0  0  0  0  0  0  0  0
   -4.2747   10.7709    7.9460 H   0  0  0  0  0  0  0  0  0  0  0  0
   -7.1223   10.4986    9.6200 H   0  0  0  0  0  0  0  0  0  0  0  0
   -9.1426   11.5312    6.5299 H   0  0  0  0  0  0  0  0  0  0  0  0
   -9.1697   14.9592    5.8886 O   0  0  0  0  0  0  0  0  0  0  0  0
   -9.0976   14.2741    7.1330 C   0  0  0  0  0  0  0  0  0  0  0  0
  -10.0931   15.2594    5.7995 H   0  0  0  0  0  0  0  0  0  0  0  0
   -3.3670   14.8742    8.0700 C   0  0  0  0  0  0  0  0  0  0  0  0
   -3.3319   15.9839    6.9857 C   0  0  0  0  0  0  0  0  0  0  0  0
   -3.7188   15.4682    5.6943 O   0  0  0  0  0  0  0  0  0  0  0  0
   -1.9578   16.6406    6.7822 C   0  0  0  0  0  0  0  0  0  0  0  0
   -2.0730   17.8540    6.0165 O   0  0  0  0  0  0  0  0  0  0  0  0
   -1.2562   16.9114    8.1191 C   0  0  0  0  0  0  0  0  0  0  0  0
    0.0765   17.3666    7.9202 O   0  0  0  0  0  0  0  0  0  0  0  0
   -1.2010   15.7130    8.8762 O   0  0  0  0  0  0  0  0  0  0  0  0
   -2.5076   15.2902    9.2851 C   0  0  0  0  0  0  0  0  0  0  0  0
   -3.2220   14.6489    5.5253 H   0  0  0  0  0  0  0  0  0  0  0  0
   -2.9320   18.2649    6.2085 H   0  0  0  0  0  0  0  0  0  0  0  0
    0.3447   17.1022    7.0242 H   0  0  0  0  0  0  0  0  0  0  0  0
   -2.3058   14.1305   10.2729 C   0  0  0  0  0  0  0  0  0  0  0  0
   -3.2826   14.1928   11.3116 O   0  0  0  0  0  0  0  0  0  0  0  0
   -4.1481   14.1611   10.8559 H   0  0  0  0  0  0  0  0  0  0  0  0
 14 15  1  0
 14 16  1  0
  2  3  1  0
  2  9  1  0
  2 15  1  0
  3  4  1  0
  4  5  1  0
  4  1  1  0
  1 17  1  0
 17 18  1  0
 17 25  1  0
 18 19  1  0
 18 20  1  0
 19 26  1  0
 20 21  1  0
 20 22  1  0
 21 27  1  0
 22 24  1  0
 22 23  1  0
 23 28  1  0
 24 25  1  0
 25 29  1  0
 29 30  1  0
 30 31  1  0
  5  6  1  0
  5  7  1  0
  6 11  1  0
  7  8  1  0
  7  9  1  0
  8 12  1  0
  9 10  1  0
 10 13  1  0
M  END
> <minimizedAffinity>
-5.20108

> <CNNscore>
0.9171382189

> <CNNaffinity>
2.8048341274

> <CNN_VS>
2.5724205971

> <CNNaffinity_variance>
0.7899806499

$$$$



 31 32  0  0  0  0  0  0  0  0999 V2000
   -5.7544   15.2791    7.6669 O   0  0  0  0  0  0  0  0  0  0  0  0
   -7.8064   12.3260    7.5731 C   0  0  0  0  0  0  0  0  0  0  0  0
   -7.3647   13.6492    7.8569 O   0  0  0  0  0  0  0  0  0  0  0  0
   -6.0824   13.9280    7.3211 C   0  0  0  0  0  0  0  0  0  0  0  0
   -5.0311   12.9928    7.9642 C   0  0  0  0  0  0  0  0  0  0  0  0
   -3.8340   12.9639    7.1615 O   0  0  0  0  0  0  0  0  0  0  0  0
   -5.5191   11.5430    8.1432 C   0  0  0  0  0  0  0  0  0  0  0  0
   -4.6744   10.9187    9.1316 O   0  0  0  0  0  0  0  0  0  0  0  0
   -7.0084   11.4055    8.5040 C   0  0  0  0  0  0  0  0  0  0  0  0
   -7.3681   10.0287    8.4277 O   0  0  0  0  0  0  0  0  0  0  0  0
   -3.3185   12.1917    7.4690 H   0  0  0  0  0  0  0  0  0  0  0  0
   -5.1084   11.0124    9.9970 H   0  0  0  0  0  0  0  0  0  0  0  0
   -7.8954    9.8875    7.6171 H   0  0  0  0  0  0  0  0  0  0  0  0
   -9.8946   11.1157    7.2368 O   0  0  0  0  0  0  0  0  0  0  0  0
   -9.3254   12.2993    7.7831 C   0  0  0  0  0  0  0  0  0  0  0  0
  -10.7952   11.0549    7.6055 H   0  0  0  0  0  0  0  0  0  0  0  0
   -4.9721   15.4560    8.8691 C   0  0  0  0  0  0  0  0  0  0  0  0
   -3.6016   16.1354    8.6077 C   0  0  0  0  0  0  0  0  0  0  0  0
   -2.6241   15.1823    8.1396 O   0  0  0  0  0  0  0  0  0  0  0  0
   -2.9749   16.8122    9.8366 C   0  0  0  0  0  0  0  0  0  0  0  0
   -1.8938   17.6816    9.4528 O   0  0  0  0  0  0  0  0  0  0  0  0
   -4.0205   17.5808   10.6545 C   0  0  0  0  0  0  0  0  0  0  0  0
   -3.4689   18.0662   11.8722 O   0  0  0  0  0  0  0  0  0  0  0  0
   -5.0986   16.7168   10.9761 O   0  0  0  0  0  0  0  0  0  0  0  0
   -5.8317   16.3346    9.8056 C   0  0  0  0  0  0  0  0  0  0  0  0
   -2.6439   14.4044    8.7238 H   0  0  0  0  0  0  0  0  0  0  0  0
   -2.0853   18.0502    8.5748 H   0  0  0  0  0  0  0  0  0  0  0  0
   -2.6718   17.5430   12.0608 H   0  0  0  0  0  0  0  0  0  0  0  0
   -7.0886   15.5981   10.2946 C   0  0  0  0  0  0  0  0  0  0  0  0
   -8.1908   15.8795    9.4327 O   0  0  0  0  0  0  0  0  0  0  0  0
   -7.9026   15.5946    8.5419 H   0  0  0  0  0  0  0  0  0  0  0  0
 14 15  1  0
 14 16  1  0
  2  3  1  0
  2  9  1  0
  2 15  1  0
  3  4  1  0
  4  5  1  0
  4  1  1  0
  1 17  1  0
 17 18  1  0
 17 25  1  0
 18 19  1  0
 18 20  1  0
 19 26  1  0
 20 21  1  0
 20 22  1  0
 21 27  1  0
 22 24  1  0
 22 23  1  0
 23 28  1  0
 24 25  1  0
 25 29  1  0
 29 30  1  0
 30 31  1  0
  5  6  1  0
  5  7  1  0
  6 11  1  0
  7  8  1  0
  7  9  1  0
  8 12  1  0
  9 10  1  0
 10 13  1  0
M  END
> <minimizedAffinity>
-4.87432

> <CNNscore>
0.9019451141

> <CNNaffinity>
3.2175405025

> <CNN_VS>
2.9020450115

> <CNNaffinity_variance>
0.6204854846

$$$$



 31 32  0  0  0  0  0  0  0  0999 V2000
   -6.1492   15.4309    7.6085 O   0  0  0  0  0  0  0  0  0  0  0  0
   -5.9981   16.7381   10.9565 C   0  0  0  0  0  0  0  0  0  0  0  0
   -6.5007   16.3757    9.6748 O   0  0  0  0  0  0  0  0  0  0  0  0
   -5.5259   15.7490    8.8587 C   0  0  0  0  0  0  0  0  0  0  0  0
   -4.3616   16.7305    8.5854 C   0  0  0  0  0  0  0  0  0  0  0  0
   -3.1999   16.0092    8.1289 O   0  0  0  0  0  0  0  0  0  0  0  0
   -3.9521   17.5629    9.8148 C   0  0  0  0  0  0  0  0  0  0  0  0
   -3.2227   18.7123    9.3384 O   0  0  0  0  0  0  0  0  0  0  0  0
   -5.1178   17.9731   10.7313 C   0  0  0  0  0  0  0  0  0  0  0  0
   -4.5799   18.5429   11.9215 O   0  0  0  0  0  0  0  0  0  0  0  0
   -2.4463   16.6272    8.2100 H   0  0  0  0  0  0  0  0  0  0  0  0
   -3.8535   19.4460    9.2395 H   0  0  0  0  0  0  0  0  0  0  0  0
   -4.6751   17.8968   12.6486 H   0  0  0  0  0  0  0  0  0  0  0  0
   -7.8529   15.7334   12.1767 O   0  0  0  0  0  0  0  0  0  0  0  0
   -7.2080   16.9639   11.8716 C   0  0  0  0  0  0  0  0  0  0  0  0
   -8.4460   15.9191   12.9279 H   0  0  0  0  0  0  0  0  0  0  0  0
   -6.2591   14.0251    7.2920 C   0  0  0  0  0  0  0  0  0  0  0  0
   -5.1508   13.1647    7.9548 C   0  0  0  0  0  0  0  0  0  0  0  0
   -3.9233   13.2155    7.1972 O   0  0  0  0  0  0  0  0  0  0  0  0
   -5.4946   11.6741    8.0997 C   0  0  0  0  0  0  0  0  0  0  0  0
   -4.5809   11.0177    8.9976 O   0  0  0  0  0  0  0  0  0  0  0  0
   -6.9434   11.4693    8.5599 C   0  0  0  0  0  0  0  0  0  0  0  0
   -7.3039   10.0938    8.5349 O   0  0  0  0  0  0  0  0  0  0  0  0
   -7.8198   12.1674    7.6899 O   0  0  0  0  0  0  0  0  0  0  0  0
   -7.6502   13.5859    7.8018 C   0  0  0  0  0  0  0  0  0  0  0  0
   -4.1293   13.0520    6.2605 H   0  0  0  0  0  0  0  0  0  0  0  0
   -4.2943   11.6543    9.6730 H   0  0  0  0  0  0  0  0  0  0  0  0
   -6.6816    9.6396    7.9422 H   0  0  0  0  0  0  0  0  0  0  0  0
   -8.7895   14.2302    6.9967 C   0  0  0  0  0  0  0  0  0  0  0  0
   -8.2557   15.0636    5.9683 O   0  0  0  0  0  0  0  0  0  0  0  0
   -7.6889   14.4771    5.4274 H   0  0  0  0  0  0  0  0  0  0  0  0
 14 15  1  0
 14 16  1  0
  2  3  1  0
  2  9  1  0
  2 15  1  0
  3  4  1  0
  4  5  1  0
  4  1  1  0
  1 17  1  0
 17 18  1  0
 17 25  1  0
 18 19  1  0
 18 20  1  0
 19 26  1  0
 20 21  1  0
 20 22  1  0
 21 27  1  0
 22 24  1  0
 22 23  1  0
 23 28  1  0
 24 25  1  0
 25 29  1  0
 29 30  1  0
 30 31  1  0
  5  6  1  0
  5  7  1  0
  6 11  1  0
  7  8  1  0
  7  9  1  0
  8 12  1  0
  9 10  1  0
 10 13  1  0
M  END
> <minimizedAffinity>
-4.32603

> <CNNscore>
0.8905648589

> <CNNaffinity>
3.4354183674

> <CNN_VS>
3.0594627857

> <CNNaffinity_variance>
0.2536345720

$$$$



 31 32  0  0  0  0  0  0  0  0999 V2000
   -7.2033   12.9782    8.2508 O   0  0  0  0  0  0  0  0  0  0  0  0
  -10.4543   11.8923    7.1587 C   0  0  0  0  0  0  0  0  0  0  0  0
   -9.4045   12.7267    7.6364 O   0  0  0  0  0  0  0  0  0  0  0  0
   -8.1728   12.0385    7.7714 C   0  0  0  0  0  0  0  0  0  0  0  0
   -8.3153   10.9098    8.8199 C   0  0  0  0  0  0  0  0  0  0  0  0
   -7.2424    9.9579    8.6747 O   0  0  0  0  0  0  0  0  0  0  0  0
   -9.6476   10.1428    8.7267 C   0  0  0  0  0  0  0  0  0  0  0  0
   -9.8524    9.4721    9.9870 O   0  0  0  0  0  0  0  0  0  0  0  0
  -10.8615   11.0064    8.3420 C   0  0  0  0  0  0  0  0  0  0  0  0
  -11.9674   10.1452    8.0851 O   0  0  0  0  0  0  0  0  0  0  0  0
   -7.5130    9.1638    9.1772 H   0  0  0  0  0  0  0  0  0  0  0  0
  -10.3977   10.0504   10.5476 H   0  0  0  0  0  0  0  0  0  0  0  0
  -12.1135   10.1030    7.1198 H   0  0  0  0  0  0  0  0  0  0  0  0
  -11.7192   13.9527    7.4645 O   0  0  0  0  0  0  0  0  0  0  0  0
  -11.5607   12.8127    6.6286 C   0  0  0  0  0  0  0  0  0  0  0  0
  -12.2531   14.5889    6.9539 H   0  0  0  0  0  0  0  0  0  0  0  0
   -6.3444   13.5717    7.2515 C   0  0  0  0  0  0  0  0  0  0  0  0
   -6.6053   15.0880    7.0492 C   0  0  0  0  0  0  0  0  0  0  0  0
   -7.7347   15.3148    6.1797 O   0  0  0  0  0  0  0  0  0  0  0  0
   -5.4336   15.8646    6.4286 C   0  0  0  0  0  0  0  0  0  0  0  0
   -5.6205   17.2845    6.5728 O   0  0  0  0  0  0  0  0  0  0  0  0
   -4.0886   15.4343    7.0275 C   0  0  0  0  0  0  0  0  0  0  0  0
   -3.0000   16.0357    6.3377 O   0  0  0  0  0  0  0  0  0  0  0  0
   -3.9510   14.0265    6.9198 O   0  0  0  0  0  0  0  0  0  0  0  0
   -4.8992   13.3419    7.7479 C   0  0  0  0  0  0  0  0  0  0  0  0
   -7.6334   14.7593    5.3873 H   0  0  0  0  0  0  0  0  0  0  0  0
   -6.1073   17.4541    7.3961 H   0  0  0  0  0  0  0  0  0  0  0  0
   -3.3259   16.3168    5.4663 H   0  0  0  0  0  0  0  0  0  0  0  0
   -4.5109   11.8552    7.7248 C   0  0  0  0  0  0  0  0  0  0  0  0
   -4.7567   11.2622    8.9995 O   0  0  0  0  0  0  0  0  0  0  0  0
   -5.7089   11.4064    9.1732 H   0  0  0  0  0  0  0  0  0  0  0  0
 14 15  1  0
 14 16  1  0
  2  3  1  0
  2  9  1  0
  2 15  1  0
  3  4  1  0
  4  5  1  0
  4  1  1  0
  1 17  1  0
 17 18  1  0
 17 25  1  0
 18 19  1  0
 18 20  1  0
 19 26  1  0
 20 21  1  0
 20 22  1  0
 21 27  1  0
 22 24  1  0
 22 23  1  0
 23 28  1  0
 24 25  1  0
 25 29  1  0
 29 30  1  0
 30 31  1  0
  5  6  1  0
  5  7  1  0
  6 11  1  0
  7  8  1  0
  7  9  1  0
  8 12  1  0
  9 10  1  0
 10 13  1  0
M  END
> <minimizedAffinity>
-5.14333

> <CNNscore>
0.8838203549

> <CNNaffinity>
3.1229207516

> <CNN_VS>
2.7601008415

> <CNNaffinity_variance>
0.4629702568

$$$$



 31 32  0  0  0  0  0  0  0  0999 V2000
   -8.7258   13.1274    7.8369 O   0  0  0  0  0  0  0  0  0  0  0  0
   -5.1452   12.9321    7.5518 C   0  0  0  0  0  0  0  0  0  0  0  0
   -6.4632   12.7937    8.0715 O   0  0  0  0  0  0  0  0  0  0  0  0
   -7.4533   13.3301    7.2106 C   0  0  0  0  0  0  0  0  0  0  0  0
   -7.2319   14.8519    7.0413 C   0  0  0  0  0  0  0  0  0  0  0  0
   -7.9394   15.3312    5.8802 O   0  0  0  0  0  0  0  0  0  0  0  0
   -5.7513   15.2495    6.8939 C   0  0  0  0  0  0  0  0  0  0  0  0
   -5.6449   16.6536    7.2057 O   0  0  0  0  0  0  0  0  0  0  0  0
   -4.7728   14.4085    7.7322 C   0  0  0  0  0  0  0  0  0  0  0  0
   -3.4425   14.7367    7.3408 O   0  0  0  0  0  0  0  0  0  0  0  0
   -7.5734   16.2167    5.6846 H   0  0  0  0  0  0  0  0  0  0  0  0
   -5.4168   16.7337    8.1478 H   0  0  0  0  0  0  0  0  0  0  0  0
   -3.0855   14.0046    6.8008 H   0  0  0  0  0  0  0  0  0  0  0  0
   -5.0114   10.8463    8.8047 O   0  0  0  0  0  0  0  0  0  0  0  0
   -4.2518   11.9422    8.3094 C   0  0  0  0  0  0  0  0  0  0  0  0
   -4.3641   10.1625    9.0579 H   0  0  0  0  0  0  0  0  0  0  0  0
   -9.3694   11.8604    7.5744 C   0  0  0  0  0  0  0  0  0  0  0  0
   -9.1964   10.8400    8.7307 C   0  0  0  0  0  0  0  0  0  0  0  0
   -7.9158   10.1780    8.6593 O   0  0  0  0  0  0  0  0  0  0  0  0
  -10.2480    9.7201    8.7625 C   0  0  0  0  0  0  0  0  0  0  0  0
  -10.2208    9.0210   10.0204 O   0  0  0  0  0  0  0  0  0  0  0  0
  -11.6557   10.2570    8.4744 C   0  0  0  0  0  0  0  0  0  0  0  0
  -12.5958    9.1978    8.3441 O   0  0  0  0  0  0  0  0  0  0  0  0
  -11.6449   10.9849    7.2568 O   0  0  0  0  0  0  0  0  0  0  0  0
  -10.8666   12.1828    7.3688 C   0  0  0  0  0  0  0  0  0  0  0  0
   -7.7788    9.8637    7.7487 H   0  0  0  0  0  0  0  0  0  0  0  0
   -9.9596    9.6435   10.7189 H   0  0  0  0  0  0  0  0  0  0  0  0
  -12.0969    8.3869    8.1485 H   0  0  0  0  0  0  0  0  0  0  0  0
  -11.1119   12.9886    6.0835 C   0  0  0  0  0  0  0  0  0  0  0  0
  -12.1947   12.4221    5.3462 O   0  0  0  0  0  0  0  0  0  0  0  0
  -12.9590   12.4345    5.9573 H   0  0  0  0  0  0  0  0  0  0  0  0
 14 15  1  0
 14 16  1  0
  2  3  1  0
  2  9  1  0
  2 15  1  0
  3  4  1  0
  4  5  1  0
  4  1  1  0
  1 17  1  0
 17 18  1  0
 17 25  1  0
 18 19  1  0
 18 20  1  0
 19 26  1  0
 20 21  1  0
 20 22  1  0
 21 27  1  0
 22 24  1  0
 22 23  1  0
 23 28  1  0
 24 25  1  0
 25 29  1  0
 29 30  1  0
 30 31  1  0
  5  6  1  0
  5  7  1  0
  6 11  1  0
  7  8  1  0
  7  9  1  0
  8 12  1  0
  9 10  1  0
 10 13  1  0
M  END
> <minimizedAffinity>
-4.66058

> <CNNscore>
0.8713552952

> <CNNaffinity>
3.1008727551

> <CNN_VS>
2.7019619942

> <CNNaffinity_variance>
0.4596156180

$$$$



 31 32  0  0  0  0  0  0  0  0999 V2000
   -8.7210   11.8487    8.1420 O   0  0  0  0  0  0  0  0  0  0  0  0
  -10.6545    8.8762    7.5368 C   0  0  0  0  0  0  0  0  0  0  0  0
  -10.1549   10.2039    7.4179 O   0  0  0  0  0  0  0  0  0  0  0  0
   -9.1419   10.4974    8.3649 C   0  0  0  0  0  0  0  0  0  0  0  0
   -9.7186   10.3980    9.7970 C   0  0  0  0  0  0  0  0  0  0  0  0
   -8.6492   10.2794   10.7566 O   0  0  0  0  0  0  0  0  0  0  0  0
  -10.6731    9.2063    9.9987 C   0  0  0  0  0  0  0  0  0  0  0  0
  -11.4713    9.4815   11.1680 O   0  0  0  0  0  0  0  0  0  0  0  0
  -11.5514    8.8722    8.7804 C   0  0  0  0  0  0  0  0  0  0  0  0
  -12.2178    7.6369    9.0270 O   0  0  0  0  0  0  0  0  0  0  0  0
   -9.0631    9.9775   11.5896 H   0  0  0  0  0  0  0  0  0  0  0  0
  -12.2982    9.9002   10.8730 H   0  0  0  0  0  0  0  0  0  0  0  0
  -11.7922    6.9393    8.4910 H   0  0  0  0  0  0  0  0  0  0  0  0
  -11.2903    9.6265    5.3072 O   0  0  0  0  0  0  0  0  0  0  0  0
  -11.3695    8.5404    6.2223 C   0  0  0  0  0  0  0  0  0  0  0  0
  -11.5478    9.2663    4.4386 H   0  0  0  0  0  0  0  0  0  0  0  0
   -7.4366   12.2142    8.6946 C   0  0  0  0  0  0  0  0  0  0  0  0
   -6.2617   11.3991    8.0918 C   0  0  0  0  0  0  0  0  0  0  0  0
   -6.1402   10.1074    8.7241 O   0  0  0  0  0  0  0  0  0  0  0  0
   -4.8830   12.0643    8.2248 C   0  0  0  0  0  0  0  0  0  0  0  0
   -3.9154   11.4230    7.3737 O   0  0  0  0  0  0  0  0  0  0  0  0
   -4.9489   13.5679    7.9288 C   0  0  0  0  0  0  0  0  0  0  0  0
   -3.7090   14.2048    8.2112 O   0  0  0  0  0  0  0  0  0  0  0  0
   -5.9442   14.1675    8.7425 O   0  0  0  0  0  0  0  0  0  0  0  0
   -7.2564   13.7171    8.3838 C   0  0  0  0  0  0  0  0  0  0  0  0
   -6.1628   10.2303    9.6890 H   0  0  0  0  0  0  0  0  0  0  0  0
   -4.3674   11.0910    6.5806 H   0  0  0  0  0  0  0  0  0  0  0  0
   -3.2147   13.6264    8.8160 H   0  0  0  0  0  0  0  0  0  0  0  0
   -8.2504   14.5909    9.1647 C   0  0  0  0  0  0  0  0  0  0  0  0
   -7.5768   15.7112    9.7375 O   0  0  0  0  0  0  0  0  0  0  0  0
   -7.1658   16.1800    8.9832 H   0  0  0  0  0  0  0  0  0  0  0  0
 14 15  1  0
 14 16  1  0
  2  3  1  0
  2  9  1  0
  2 15  1  0
  3  4  1  0
  4  5  1  0
  4  1  1  0
  1 17  1  0
 17 18  1  0
 17 25  1  0
 18 19  1  0
 18 20  1  0
 19 26  1  0
 20 21  1  0
 20 22  1  0
 21 27  1  0
 22 24  1  0
 22 23  1  0
 23 28  1  0
 24 25  1  0
 25 29  1  0
 29 30  1  0
 30 31  1  0
  5  6  1  0
  5  7  1  0
  6 11  1  0
  7  8  1  0
  7  9  1  0
  8 12  1  0
  9 10  1  0
 10 13  1  0
M  END
> <minimizedAffinity>
-5.01848

> <CNNscore>
0.8687337041

> <CNNaffinity>
3.0690524578

> <CNN_VS>
2.6661891937

> <CNNaffinity_variance>
0.5672861934

$$$$



 31 32  0  0  0  0  0  0  0  0999 V2000
   -9.2552   12.6456    6.8532 O   0  0  0  0  0  0  0  0  0  0  0  0
  -11.7656   12.2881    9.4048 C   0  0  0  0  0  0  0  0  0  0  0  0
  -10.5074   12.5090    8.7766 O   0  0  0  0  0  0  0  0  0  0  0  0
  -10.5708   12.3999    7.3648 C   0  0  0  0  0  0  0  0  0  0  0  0
  -10.9859   10.9632    6.9682 C   0  0  0  0  0  0  0  0  0  0  0  0
  -11.4538   10.9393    5.6048 O   0  0  0  0  0  0  0  0  0  0  0  0
  -12.0914   10.3696    7.8611 C   0  0  0  0  0  0  0  0  0  0  0  0
  -12.0567    8.9366    7.7015 O   0  0  0  0  0  0  0  0  0  0  0  0
  -12.0089   10.7755    9.3429 C   0  0  0  0  0  0  0  0  0  0  0  0
  -13.1957   10.3384    9.9995 O   0  0  0  0  0  0  0  0  0  0  0  0
  -11.9221   10.0881    5.4926 H   0  0  0  0  0  0  0  0  0  0  0  0
  -11.4979    8.5710    8.4087 H   0  0  0  0  0  0  0  0  0  0  0  0
  -13.7662   11.1146   10.1643 H   0  0  0  0  0  0  0  0  0  0  0  0
  -12.9557   12.9099   11.4384 O   0  0  0  0  0  0  0  0  0  0  0  0
  -11.6751   12.8714   10.8203 C   0  0  0  0  0  0  0  0  0  0  0  0
  -12.7922   13.0621   12.3875 H   0  0  0  0  0  0  0  0  0  0  0  0
   -8.1913   12.6922    7.8301 C   0  0  0  0  0  0  0  0  0  0  0  0
   -7.5246   11.3112    8.0687 C   0  0  0  0  0  0  0  0  0  0  0  0
   -8.2980   10.5061    8.9834 O   0  0  0  0  0  0  0  0  0  0  0  0
   -6.1073   11.3750    8.6588 C   0  0  0  0  0  0  0  0  0  0  0  0
   -5.4430   10.1031    8.5467 O   0  0  0  0  0  0  0  0  0  0  0  0
   -5.2701   12.4803    8.0028 C   0  0  0  0  0  0  0  0  0  0  0  0
   -4.0203   12.6417    8.6621 O   0  0  0  0  0  0  0  0  0  0  0  0
   -5.9684   13.7126    8.0806 O   0  0  0  0  0  0  0  0  0  0  0  0
   -7.1543   13.6952    7.2764 C   0  0  0  0  0  0  0  0  0  0  0  0
   -8.5200   11.0464    9.7616 H   0  0  0  0  0  0  0  0  0  0  0  0
   -5.7590    9.6544    7.7452 H   0  0  0  0  0  0  0  0  0  0  0  0
   -4.1064   12.2556    9.5499 H   0  0  0  0  0  0  0  0  0  0  0  0
   -7.6953   15.1334    7.2589 C   0  0  0  0  0  0  0  0  0  0  0  0
   -7.5619   15.6938    5.9530 O   0  0  0  0  0  0  0  0  0  0  0  0
   -8.0564   15.0917    5.3608 H   0  0  0  0  0  0  0  0  0  0  0  0
 14 15  1  0
 14 16  1  0
  2  3  1  0
  2  9  1  0
  2 15  1  0
  3  4  1  0
  4  5  1  0
  4  1  1  0
  1 17  1  0
 17 18  1  0
 17 25  1  0
 18 19  1  0
 18 20  1  0
 19 26  1  0
 20 21  1  0
 20 22  1  0
 21 27  1  0
 22 24  1  0
 22 23  1  0
 23 28  1  0
 24 25  1  0
 25 29  1  0
 29 30  1  0
 30 31  1  0
  5  6  1  0
  5  7  1  0
  6 11  1  0
  7  8  1  0
  7  9  1  0
  8 12  1  0
  9 10  1  0
 10 13  1  0
M  END
> <minimizedAffinity>
-4.27026

> <CNNscore>
0.8676210046

> <CNNaffinity>
3.2218630314

> <CNN_VS>
2.7953560352

> <CNNaffinity_variance>
0.4391682148

$$$$



 31 32  0  0  0  0  0  0  0  0999 V2000
   -7.9775   12.7933    9.2779 O   0  0  0  0  0  0  0  0  0  0  0  0
  -10.1520   12.7610    6.4124 C   0  0  0  0  0  0  0  0  0  0  0  0
   -9.5237   13.1770    7.6202 O   0  0  0  0  0  0  0  0  0  0  0  0
   -8.5349   12.2656    8.0681 C   0  0  0  0  0  0  0  0  0  0  0  0
   -9.1876   10.9001    8.3891 C   0  0  0  0  0  0  0  0  0  0  0  0
   -8.1824    9.8679    8.4391 O   0  0  0  0  0  0  0  0  0  0  0  0
  -10.2594   10.4714    7.3696 C   0  0  0  0  0  0  0  0  0  0  0  0
  -11.0842    9.4704    8.0005 O   0  0  0  0  0  0  0  0  0  0  0  0
  -11.1049   11.6246    6.8016 C   0  0  0  0  0  0  0  0  0  0  0  0
  -11.8965   11.1209    5.7291 O   0  0  0  0  0  0  0  0  0  0  0  0
   -8.6632    9.0173    8.3970 H   0  0  0  0  0  0  0  0  0  0  0  0
  -11.8523    9.9204    8.3924 H   0  0  0  0  0  0  0  0  0  0  0  0
  -11.5133   11.4305    4.8850 H   0  0  0  0  0  0  0  0  0  0  0  0
  -10.2461   15.1935    6.3003 O   0  0  0  0  0  0  0  0  0  0  0  0
  -10.8306   13.9950    5.8050 C   0  0  0  0  0  0  0  0  0  0  0  0
  -10.5541   15.9068    5.7112 H   0  0  0  0  0  0  0  0  0  0  0  0
   -6.5792   13.1549    9.2292 C   0  0  0  0  0  0  0  0  0  0  0  0
   -5.7302   12.1839    8.3662 C   0  0  0  0  0  0  0  0  0  0  0  0
   -5.3739   10.9978    9.1075 O   0  0  0  0  0  0  0  0  0  0  0  0
   -4.4073   12.7713    7.8506 C   0  0  0  0  0  0  0  0  0  0  0  0
   -3.8457   11.9475    6.8125 O   0  0  0  0  0  0  0  0  0  0  0  0
   -4.5819   14.2138    7.3590 C   0  0  0  0  0  0  0  0  0  0  0  0
   -3.3291   14.8049    7.0369 O   0  0  0  0  0  0  0  0  0  0  0  0
   -5.1837   14.9927    8.3805 O   0  0  0  0  0  0  0  0  0  0  0  0
   -6.5326   14.5785    8.6301 C   0  0  0  0  0  0  0  0  0  0  0  0
   -5.0206   11.2668    9.9733 H   0  0  0  0  0  0  0  0  0  0  0  0
   -4.5699   11.5289    6.3189 H   0  0  0  0  0  0  0  0  0  0  0  0
   -2.6393   14.2943    7.4932 H   0  0  0  0  0  0  0  0  0  0  0  0
   -7.1456   15.6228    9.5762 C   0  0  0  0  0  0  0  0  0  0  0  0
   -8.2574   16.2621    8.9500 O   0  0  0  0  0  0  0  0  0  0  0  0
   -8.8779   15.5400    8.7235 H   0  0  0  0  0  0  0  0  0  0  0  0
 14 15  1  0
 14 16  1  0
  2  3  1  0
  2  9  1  0
  2 15  1  0
  3  4  1  0
  4  5  1  0
  4  1  1  0
  1 17  1  0
 17 18  1  0
 17 25  1  0
 18 19  1  0
 18 20  1  0
 19 26  1  0
 20 21  1  0
 20 22  1  0
 21 27  1  0
 22 24  1  0
 22 23  1  0
 23 28  1  0
 24 25  1  0
 25 29  1  0
 29 30  1  0
 30 31  1  0
  5  6  1  0
  5  7  1  0
  6 11  1  0
  7  8  1  0
  7  9  1  0
  8 12  1  0
  9 10  1  0
 10 13  1  0
M  END
> <minimizedAffinity>
-4.22411

> <CNNscore>
0.8491389751

> <CNNaffinity>
3.3966376781

> <CNN_VS>
2.8842175007

> <CNNaffinity_variance>
0.2482586652

$$$$



 31 32  0  0  0  0  0  0  0  0999 V2000
   -5.6760   15.4327    7.7618 O   0  0  0  0  0  0  0  0  0  0  0  0
   -7.8205   12.5571    7.4923 C   0  0  0  0  0  0  0  0  0  0  0  0
   -7.3447   13.8530    7.8398 O   0  0  0  0  0  0  0  0  0  0  0  0
   -6.0373   14.1073    7.3548 C   0  0  0  0  0  0  0  0  0  0  0  0
   -5.0386   13.1135    7.9941 C   0  0  0  0  0  0  0  0  0  0  0  0
   -3.8180   13.0733    7.2281 O   0  0  0  0  0  0  0  0  0  0  0  0
   -5.5798   11.6757    8.1025 C   0  0  0  0  0  0  0  0  0  0  0  0
   -4.7885   10.9866    9.0920 O   0  0  0  0  0  0  0  0  0  0  0  0
   -7.0837   11.5759    8.4117 C   0  0  0  0  0  0  0  0  0  0  0  0
   -7.4861   10.2161    8.2720 O   0  0  0  0  0  0  0  0  0  0  0  0
   -3.3385   12.2731    7.5218 H   0  0  0  0  0  0  0  0  0  0  0  0
   -5.2467   11.0630    9.9466 H   0  0  0  0  0  0  0  0  0  0  0  0
   -7.9915   10.1231    7.4407 H   0  0  0  0  0  0  0  0  0  0  0  0
   -9.9576   11.5966    6.8222 O   0  0  0  0  0  0  0  0  0  0  0  0
   -9.3455   12.5747    7.6541 C   0  0  0  0  0  0  0  0  0  0  0  0
  -10.8733   11.5043    7.1439 H   0  0  0  0  0  0  0  0  0  0  0  0
   -5.2672   16.3326    6.7075 C   0  0  0  0  0  0  0  0  0  0  0  0
   -4.1469   15.7456    5.8081 C   0  0  0  0  0  0  0  0  0  0  0  0
   -2.8478   15.9052    6.4165 O   0  0  0  0  0  0  0  0  0  0  0  0
   -4.0405   16.3844    4.4147 C   0  0  0  0  0  0  0  0  0  0  0  0
   -3.2198   15.5867    3.5417 O   0  0  0  0  0  0  0  0  0  0  0  0
   -5.4227   16.6172    3.7915 C   0  0  0  0  0  0  0  0  0  0  0  0
   -5.3251   17.3538    2.5789 O   0  0  0  0  0  0  0  0  0  0  0  0
   -6.2288   17.3604    4.6916 O   0  0  0  0  0  0  0  0  0  0  0  0
   -6.5363   16.6029    5.8685 C   0  0  0  0  0  0  0  0  0  0  0  0
   -2.7564   16.8261    6.7172 H   0  0  0  0  0  0  0  0  0  0  0  0
   -3.3181   14.6520    3.7872 H   0  0  0  0  0  0  0  0  0  0  0  0
   -4.4677   17.8117    2.5835 H   0  0  0  0  0  0  0  0  0  0  0  0
   -7.5836   17.4109    6.6506 C   0  0  0  0  0  0  0  0  0  0  0  0
   -8.8456   17.3546    5.9865 O   0  0  0  0  0  0  0  0  0  0  0  0
   -9.0642   16.4026    5.9255 H   0  0  0  0  0  0  0  0  0  0  0  0
 14 15  1  0
 14 16  1  0
  2  3  1  0
  2  9  1  0
  2 15  1  0
  3  4  1  0
  4  5  1  0
  4  1  1  0
  1 17  1  0
 17 18  1  0
 17 25  1  0
 18 19  1  0
 18 20  1  0
 19 26  1  0
 20 21  1  0
 20 22  1  0
 21 27  1  0
 22 24  1  0
 22 23  1  0
 23 28  1  0
 24 25  1  0
 25 29  1  0
 29 30  1  0
 30 31  1  0
  5  6  1  0
  5  7  1  0
  6 11  1  0
  7  8  1  0
  7  9  1  0
  8 12  1  0
  9 10  1  0
 10 13  1  0
M  END
> <minimizedAffinity>
-5.63861

> <CNNscore>
0.8456951380

> <CNNaffinity>
2.8626320362

> <CNN_VS>
2.4209139347

> <CNNaffinity_variance>
0.8313088417

$$$$



 31 32  0  0  0  0  0  0  0  0999 V2000
   -7.9034   15.6532    7.6726 O   0  0  0  0  0  0  0  0  0  0  0  0
   -6.2978   12.4360    7.7822 C   0  0  0  0  0  0  0  0  0  0  0  0
   -7.1071   13.5491    8.1463 O   0  0  0  0  0  0  0  0  0  0  0  0
   -7.0514   14.6028    7.1999 C   0  0  0  0  0  0  0  0  0  0  0  0
   -5.6076   15.1513    7.1106 C   0  0  0  0  0  0  0  0  0  0  0  0
   -5.4375   15.9084    5.8956 O   0  0  0  0  0  0  0  0  0  0  0  0
   -4.5259   14.0555    7.1437 C   0  0  0  0  0  0  0  0  0  0  0  0
   -3.2818   14.6835    7.5151 O   0  0  0  0  0  0  0  0  0  0  0  0
   -4.8497   12.8592    8.0555 C   0  0  0  0  0  0  0  0  0  0  0  0
   -3.8807   11.8397    7.8270 O   0  0  0  0  0  0  0  0  0  0  0  0
   -4.4730   16.0146    5.7737 H   0  0  0  0  0  0  0  0  0  0  0  0
   -3.1818   14.6007    8.4791 H   0  0  0  0  0  0  0  0  0  0  0  0
   -4.2952   11.1254    7.3045 H   0  0  0  0  0  0  0  0  0  0  0  0
   -5.7392   10.2886    8.7896 O   0  0  0  0  0  0  0  0  0  0  0  0
   -6.7855   11.2332    8.5991 C   0  0  0  0  0  0  0  0  0  0  0  0
   -6.0436    9.6880    9.4948 H   0  0  0  0  0  0  0  0  0  0  0  0
   -9.0323   15.9831    6.8328 C   0  0  0  0  0  0  0  0  0  0  0  0
   -8.6755   16.0222    5.3231 C   0  0  0  0  0  0  0  0  0  0  0  0
   -8.0674   17.2798    4.9599 O   0  0  0  0  0  0  0  0  0  0  0  0
   -9.8715   15.8437    4.3751 C   0  0  0  0  0  0  0  0  0  0  0  0
   -9.4306   15.5671    3.0331 O   0  0  0  0  0  0  0  0  0  0  0  0
  -10.8245   14.7467    4.8663 C   0  0  0  0  0  0  0  0  0  0  0  0
  -12.0068   14.6982    4.0773 O   0  0  0  0  0  0  0  0  0  0  0  0
  -11.2036   15.0142    6.2068 O   0  0  0  0  0  0  0  0  0  0  0  0
  -10.0910   14.8900    7.1013 C   0  0  0  0  0  0  0  0  0  0  0  0
   -8.6101   18.0028    5.3196 H   0  0  0  0  0  0  0  0  0  0  0  0
   -8.5951   15.0734    3.0736 H   0  0  0  0  0  0  0  0  0  0  0  0
  -12.0908   15.5539    3.6241 H   0  0  0  0  0  0  0  0  0  0  0  0
  -10.6602   14.9758    8.5261 C   0  0  0  0  0  0  0  0  0  0  0  0
  -11.7825   14.1046    8.6614 O   0  0  0  0  0  0  0  0  0  0  0  0
  -11.4473   13.2131    8.4362 H   0  0  0  0  0  0  0  0  0  0  0  0
 14 15  1  0
 14 16  1  0
  2  3  1  0
  2  9  1  0
  2 15  1  0
  3  4  1  0
  4  5  1  0
  4  1  1  0
  1 17  1  0
 17 18  1  0
 17 25  1  0
 18 19  1  0
 18 20  1  0
 19 26  1  0
 20 21  1  0
 20 22  1  0
 21 27  1  0
 22 24  1  0
 22 23  1  0
 23 28  1  0
 24 25  1  0
 25 29  1  0
 29 30  1  0
 30 31  1  0
  5  6  1  0
  5  7  1  0
  6 11  1  0
  7  8  1  0
  7  9  1  0
  8 12  1  0
  9 10  1  0
 10 13  1  0
M  END
> <minimizedAffinity>
-4.39505

> <CNNscore>
0.8343265653

> <CNNaffinity>
3.1666238308

> <CNN_VS>
2.6419982910

> <CNNaffinity_variance>
0.3235183060

$$$$



 31 32  0  0  0  0  0  0  0  0999 V2000
   -8.3284   13.2070    9.0020 O   0  0  0  0  0  0  0  0  0  0  0  0
   -9.2224   14.8139    5.9102 C   0  0  0  0  0  0  0  0  0  0  0  0
   -8.9093   14.6221    7.2856 O   0  0  0  0  0  0  0  0  0  0  0  0
   -8.6308   13.2690    7.6029 C   0  0  0  0  0  0  0  0  0  0  0  0
   -9.8830   12.4000    7.3374 C   0  0  0  0  0  0  0  0  0  0  0  0
   -9.5137   11.0092    7.2503 O   0  0  0  0  0  0  0  0  0  0  0  0
  -10.6341   12.7746    6.0461 C   0  0  0  0  0  0  0  0  0  0  0  0
  -11.9709   12.2435    6.1509 O   0  0  0  0  0  0  0  0  0  0  0  0
  -10.6470   14.2787    5.7226 C   0  0  0  0  0  0  0  0  0  0  0  0
  -11.1795   14.4562    4.4128 O   0  0  0  0  0  0  0  0  0  0  0  0
  -10.2765   10.5497    6.8461 H   0  0  0  0  0  0  0  0  0  0  0  0
  -12.5431   12.9442    6.5082 H   0  0  0  0  0  0  0  0  0  0  0  0
  -10.4464   14.6721    3.8035 H   0  0  0  0  0  0  0  0  0  0  0  0
   -8.3376   16.5015    4.3910 O   0  0  0  0  0  0  0  0  0  0  0  0
   -9.0473   16.3073    5.6084 C   0  0  0  0  0  0  0  0  0  0  0  0
   -8.4687   17.4368    4.1490 H   0  0  0  0  0  0  0  0  0  0  0  0
   -6.9314   13.0701    9.3454 C   0  0  0  0  0  0  0  0  0  0  0  0
   -6.1242   12.2607    8.2957 C   0  0  0  0  0  0  0  0  0  0  0  0
   -6.2874   10.8399    8.4898 O   0  0  0  0  0  0  0  0  0  0  0  0
   -4.6093   12.5167    8.3129 C   0  0  0  0  0  0  0  0  0  0  0  0
   -3.9835   11.9958    7.1259 O   0  0  0  0  0  0  0  0  0  0  0  0
   -4.2888   14.0073    8.4813 C   0  0  0  0  0  0  0  0  0  0  0  0
   -2.8938   14.2188    8.6598 O   0  0  0  0  0  0  0  0  0  0  0  0
   -4.9577   14.5089    9.6274 O   0  0  0  0  0  0  0  0  0  0  0  0
   -6.3792   14.5097    9.4467 C   0  0  0  0  0  0  0  0  0  0  0  0
   -6.1456   10.6364    9.4307 H   0  0  0  0  0  0  0  0  0  0  0  0
   -4.6122   12.0569    6.3880 H   0  0  0  0  0  0  0  0  0  0  0  0
   -2.5058   13.3769    8.9521 H   0  0  0  0  0  0  0  0  0  0  0  0
   -6.9741   15.2730   10.6404 C   0  0  0  0  0  0  0  0  0  0  0  0
   -6.6645   14.5988   11.8597 O   0  0  0  0  0  0  0  0  0  0  0  0
   -5.6875   14.5474   11.8867 H   0  0  0  0  0  0  0  0  0  0  0  0
 14 15  1  0
 14 16  1  0
  2  3  1  0
  2  9  1  0
  2 15  1  0
  3  4  1  0
  4  5  1  0
  4  1  1  0
  1 17  1  0
 17 18  1  0
 17 25  1  0
 18 19  1  0
 18 20  1  0
 19 26  1  0
 20 21  1  0
 20 22  1  0
 21 27  1  0
 22 24  1  0
 22 23  1  0
 23 28  1  0
 24 25  1  0
 25 29  1  0
 29 30  1  0
 30 31  1  0
  5  6  1  0
  5  7  1  0
  6 11  1  0
  7  8  1  0
  7  9  1  0
  8 12  1  0
  9 10  1  0
 10 13  1  0
M  END
> <minimizedAffinity>
-4.19342

> <CNNscore>
0.8280985951

> <CNNaffinity>
3.2763898373

> <CNN_VS>
2.7131738663

> <CNNaffinity_variance>
0.2060932666

$$$$



 31 32  0  0  0  0  0  0  0  0999 V2000
   -7.0210   15.0576    6.3986 O   0  0  0  0  0  0  0  0  0  0  0  0
   -6.8104   12.0485    8.3585 C   0  0  0  0  0  0  0  0  0  0  0  0
   -6.5361   13.0270    7.3617 O   0  0  0  0  0  0  0  0  0  0  0  0
   -7.3968   14.1503    7.4418 C   0  0  0  0  0  0  0  0  0  0  0  0
   -8.8593   13.7084    7.1980 C   0  0  0  0  0  0  0  0  0  0  0  0
   -9.7702   14.7186    7.6755 O   0  0  0  0  0  0  0  0  0  0  0  0
   -9.2256   12.3769    7.8799 C   0  0  0  0  0  0  0  0  0  0  0  0
  -10.4012   11.8608    7.2228 O   0  0  0  0  0  0  0  0  0  0  0  0
   -8.0923   11.3367    7.9104 C   0  0  0  0  0  0  0  0  0  0  0  0
   -8.4928   10.2543    8.7462 O   0  0  0  0  0  0  0  0  0  0  0  0
  -10.6489   14.2920    7.7239 H   0  0  0  0  0  0  0  0  0  0  0  0
  -10.1089   11.2496    6.5249 H   0  0  0  0  0  0  0  0  0  0  0  0
   -8.0071   10.3157    9.5920 H   0  0  0  0  0  0  0  0  0  0  0  0
   -5.9398    9.8164    8.8038 O   0  0  0  0  0  0  0  0  0  0  0  0
   -5.5733   11.1481    8.4638 C   0  0  0  0  0  0  0  0  0  0  0  0
   -5.1549    9.2667    8.6238 H   0  0  0  0  0  0  0  0  0  0  0  0
   -5.9323   15.9586    6.7008 C   0  0  0  0  0  0  0  0  0  0  0  0
   -4.6042   15.5626    6.0023 C   0  0  0  0  0  0  0  0  0  0  0  0
   -3.9168   14.5242    6.7320 O   0  0  0  0  0  0  0  0  0  0  0  0
   -3.5926   16.7088    5.8477 C   0  0  0  0  0  0  0  0  0  0  0  0
   -2.5492   16.3558    4.9211 O   0  0  0  0  0  0  0  0  0  0  0  0
   -4.2762   18.0132    5.4185 C   0  0  0  0  0  0  0  0  0  0  0  0
   -3.3639   19.1042    5.4355 O   0  0  0  0  0  0  0  0  0  0  0  0
   -5.3326   18.3119    6.3168 O   0  0  0  0  0  0  0  0  0  0  0  0
   -6.3924   17.3525    6.2179 C   0  0  0  0  0  0  0  0  0  0  0  0
   -3.8813   14.7757    7.6712 H   0  0  0  0  0  0  0  0  0  0  0  0
   -2.9172   15.7612    4.2469 H   0  0  0  0  0  0  0  0  0  0  0  0
   -2.6197   18.8537    6.0082 H   0  0  0  0  0  0  0  0  0  0  0  0
   -7.5590   17.8974    7.0567 C   0  0  0  0  0  0  0  0  0  0  0  0
   -7.2449   17.8188    8.4468 O   0  0  0  0  0  0  0  0  0  0  0  0
   -6.4209   18.3355    8.5560 H   0  0  0  0  0  0  0  0  0  0  0  0
 14 15  1  0
 14 16  1  0
  2  3  1  0
  2  9  1  0
  2 15  1  0
  3  4  1  0
  4  5  1  0
  4  1  1  0
  1 17  1  0
 17 18  1  0
 17 25  1  0
 18 19  1  0
 18 20  1  0
 19 26  1  0
 20 21  1  0
 20 22  1  0
 21 27  1  0
 22 24  1  0
 22 23  1  0
 23 28  1  0
 24 25  1  0
 25 29  1  0
 29 30  1  0
 30 31  1  0
  5  6  1  0
  5  7  1  0
  6 11  1  0
  7  8  1  0
  7  9  1  0
  8 12  1  0
  9 10  1  0
 10 13  1  0
M  END
> <minimizedAffinity>
-4.39221

> <CNNscore>
0.8225538135

> <CNNaffinity>
3.0387487411

> <CNN_VS>
2.4995343685

> <CNNaffinity_variance>
0.4367903173

$$$$



 31 32  0  0  0  0  0  0  0  0999 V2000
   -5.1998   16.5355    5.9580 O   0  0  0  0  0  0  0  0  0  0  0  0
   -6.9190   13.6582    7.2642 C   0  0  0  0  0  0  0  0  0  0  0  0
   -6.6779   14.9668    6.7582 O   0  0  0  0  0  0  0  0  0  0  0  0
   -5.3118   15.1979    6.4589 C   0  0  0  0  0  0  0  0  0  0  0  0
   -4.4669   15.0903    7.7505 C   0  0  0  0  0  0  0  0  0  0  0  0
   -3.0755   14.9072    7.4206 O   0  0  0  0  0  0  0  0  0  0  0  0
   -4.8929   13.9343    8.6745 C   0  0  0  0  0  0  0  0  0  0  0  0
   -4.3745   14.2158    9.9906 O   0  0  0  0  0  0  0  0  0  0  0  0
   -6.4071   13.6631    8.7095 C   0  0  0  0  0  0  0  0  0  0  0  0
   -6.6342   12.4509    9.4232 O   0  0  0  0  0  0  0  0  0  0  0  0
   -2.6387   14.6040    8.2414 H   0  0  0  0  0  0  0  0  0  0  0  0
   -5.0696   14.6742   10.4934 H   0  0  0  0  0  0  0  0  0  0  0  0
   -6.8616   11.7485    8.7828 H   0  0  0  0  0  0  0  0  0  0  0  0
   -8.6983   11.9932    7.2514 O   0  0  0  0  0  0  0  0  0  0  0  0
   -8.4194   13.3809    7.1101 C   0  0  0  0  0  0  0  0  0  0  0  0
   -9.6627   11.9237    7.3770 H   0  0  0  0  0  0  0  0  0  0  0  0
   -5.4823   16.7140    4.5520 C   0  0  0  0  0  0  0  0  0  0  0  0
   -6.8455   17.4076    4.2895 C   0  0  0  0  0  0  0  0  0  0  0  0
   -7.9367   16.4660    4.3655 O   0  0  0  0  0  0  0  0  0  0  0  0
   -6.9683   18.0843    2.9154 C   0  0  0  0  0  0  0  0  0  0  0  0
   -8.1055   18.9657    2.8731 O   0  0  0  0  0  0  0  0  0  0  0  0
   -5.6869   18.8389    2.5394 C   0  0  0  0  0  0  0  0  0  0  0  0
   -5.7461   19.3236    1.2036 O   0  0  0  0  0  0  0  0  0  0  0  0
   -4.5753   17.9632    2.6384 O   0  0  0  0  0  0  0  0  0  0  0  0
   -4.3290   17.5798    3.9970 C   0  0  0  0  0  0  0  0  0  0  0  0
   -7.7113   15.6852    3.8306 H   0  0  0  0  0  0  0  0  0  0  0  0
   -8.2470   19.3368    3.7595 H   0  0  0  0  0  0  0  0  0  0  0  0
   -6.4231   18.8071    0.7352 H   0  0  0  0  0  0  0  0  0  0  0  0
   -2.9882   16.8292    4.0062 C   0  0  0  0  0  0  0  0  0  0  0  0
   -3.1885   15.4591    3.6603 O   0  0  0  0  0  0  0  0  0  0  0  0
   -3.6128   15.4737    2.7785 H   0  0  0  0  0  0  0  0  0  0  0  0
 14 15  1  0
 14 16  1  0
  2  3  1  0
  2  9  1  0
  2 15  1  0
  3  4  1  0
  4  5  1  0
  4  1  1  0
  1 17  1  0
 17 18  1  0
 17 25  1  0
 18 19  1  0
 18 20  1  0
 19 26  1  0
 20 21  1  0
 20 22  1  0
 21 27  1  0
 22 24  1  0
 22 23  1  0
 23 28  1  0
 24 25  1  0
 25 29  1  0
 29 30  1  0
 30 31  1  0
  5  6  1  0
  5  7  1  0
  6 11  1  0
  7  8  1  0
  7  9  1  0
  8 12  1  0
  9 10  1  0
 10 13  1  0
M  END
> <minimizedAffinity>
-4.12805

> <CNNscore>
0.8143283129

> <CNNaffinity>
3.2830238342

> <CNN_VS>
2.6734592915

> <CNNaffinity_variance>
0.1364739984

$$$$



 31 32  0  0  0  0  0  0  0  0999 V2000
   -5.1446   13.9117    7.3281 O   0  0  0  0  0  0  0  0  0  0  0  0
   -3.8821   15.6513   10.2126 C   0  0  0  0  0  0  0  0  0  0  0  0
   -4.7484   14.9083    9.3617 O   0  0  0  0  0  0  0  0  0  0  0  0
   -4.1876   14.6647    8.0829 C   0  0  0  0  0  0  0  0  0  0  0  0
   -3.9415   16.0071    7.3542 C   0  0  0  0  0  0  0  0  0  0  0  0
   -3.0148   15.8195    6.2659 O   0  0  0  0  0  0  0  0  0  0  0  0
   -3.3842   17.1145    8.2680 C   0  0  0  0  0  0  0  0  0  0  0  0
   -3.6339   18.3790    7.6208 O   0  0  0  0  0  0  0  0  0  0  0  0
   -3.9310   17.0977    9.7061 C   0  0  0  0  0  0  0  0  0  0  0  0
   -3.1818   18.0250   10.4868 O   0  0  0  0  0  0  0  0  0  0  0  0
   -2.7127   16.7132    6.0084 H   0  0  0  0  0  0  0  0  0  0  0  0
   -4.4748   18.7283    7.9629 H   0  0  0  0  0  0  0  0  0  0  0  0
   -2.5748   17.5262   11.0680 H   0  0  0  0  0  0  0  0  0  0  0  0
   -3.5854   14.4872   12.3328 O   0  0  0  0  0  0  0  0  0  0  0  0
   -4.3770   15.4521   11.6504 C   0  0  0  0  0  0  0  0  0  0  0  0
   -3.7986   14.5845   13.2792 H   0  0  0  0  0  0  0  0  0  0  0  0
   -6.3836   13.5993    8.0031 C   0  0  0  0  0  0  0  0  0  0  0  0
   -7.5781   14.4575    7.5083 C   0  0  0  0  0  0  0  0  0  0  0  0
   -7.5887   15.7556    8.1391 O   0  0  0  0  0  0  0  0  0  0  0  0
   -8.9627   13.8476    7.7771 C   0  0  0  0  0  0  0  0  0  0  0  0
   -9.9814   14.5229    7.0168 O   0  0  0  0  0  0  0  0  0  0  0  0
   -8.9836   12.3413    7.4880 C   0  0  0  0  0  0  0  0  0  0  0  0
  -10.2148   11.7550    7.8920 O   0  0  0  0  0  0  0  0  0  0  0  0
   -7.9393   11.7064    8.2081 O   0  0  0  0  0  0  0  0  0  0  0  0
   -6.6508   12.1034    7.7227 C   0  0  0  0  0  0  0  0  0  0  0  0
   -7.4790   15.6359    9.0984 H   0  0  0  0  0  0  0  0  0  0  0  0
   -9.5945   14.8336    6.1817 H   0  0  0  0  0  0  0  0  0  0  0  0
  -10.6264   12.3549    8.5365 H   0  0  0  0  0  0  0  0  0  0  0  0
   -5.6215   11.1944    8.4125 C   0  0  0  0  0  0  0  0  0  0  0  0
   -6.2232    9.9496    8.7669 O   0  0  0  0  0  0  0  0  0  0  0  0
   -6.5612    9.5768    7.9276 H   0  0  0  0  0  0  0  0  0  0  0  0
 14 15  1  0
 14 16  1  0
  2  3  1  0
  2  9  1  0
  2 15  1  0
  3  4  1  0
  4  5  1  0
  4  1  1  0
  1 17  1  0
 17 18  1  0
 17 25  1  0
 18 19  1  0
 18 20  1  0
 19 26  1  0
 20 21  1  0
 20 22  1  0
 21 27  1  0
 22 24  1  0
 22 23  1  0
 23 28  1  0
 24 25  1  0
 25 29  1  0
 29 30  1  0
 30 31  1  0
  5  6  1  0
  5  7  1  0
  6 11  1  0
  7  8  1  0
  7  9  1  0
  8 12  1  0
  9 10  1  0
 10 13  1  0
M  END
> <minimizedAffinity>
-4.15946

> <CNNscore>
0.8135937452

> <CNNaffinity>
2.8422920704

> <CNN_VS>
2.3124711514

> <CNNaffinity_variance>
0.6508260369

$$$$



 31 32  0  0  0  0  0  0  0  0999 V2000
   -7.9224   13.4418    6.7357 O   0  0  0  0  0  0  0  0  0  0  0  0
  -10.3270   11.1345    8.0901 C   0  0  0  0  0  0  0  0  0  0  0  0
   -9.1311   11.6470    7.5125 O   0  0  0  0  0  0  0  0  0  0  0  0
   -9.1738   13.0496    7.3127 C   0  0  0  0  0  0  0  0  0  0  0  0
  -10.3013   13.4026    6.3138 C   0  0  0  0  0  0  0  0  0  0  0  0
  -10.6334   14.8019    6.4130 O   0  0  0  0  0  0  0  0  0  0  0  0
  -11.5928   12.5909    6.5259 C   0  0  0  0  0  0  0  0  0  0  0  0
  -12.3580   12.6643    5.3055 O   0  0  0  0  0  0  0  0  0  0  0  0
  -11.3717   11.1338    6.9678 C   0  0  0  0  0  0  0  0  0  0  0  0
  -12.6310   10.5738    7.3301 O   0  0  0  0  0  0  0  0  0  0  0  0
  -11.4914   14.9111    5.9567 H   0  0  0  0  0  0  0  0  0  0  0  0
  -12.1358   11.8855    4.7667 H   0  0  0  0  0  0  0  0  0  0  0  0
  -12.6768   10.5107    8.3043 H   0  0  0  0  0  0  0  0  0  0  0  0
  -11.0907    9.2391    9.4179 O   0  0  0  0  0  0  0  0  0  0  0  0
   -9.9967    9.7526    8.6675 C   0  0  0  0  0  0  0  0  0  0  0  0
  -10.9062    8.2907    9.5484 H   0  0  0  0  0  0  0  0  0  0  0  0
   -6.8958   13.8563    7.6646 C   0  0  0  0  0  0  0  0  0  0  0  0
   -5.9617   12.6945    8.0959 C   0  0  0  0  0  0  0  0  0  0  0  0
   -6.5586   11.9028    9.1447 O   0  0  0  0  0  0  0  0  0  0  0  0
   -4.5907   13.1366    8.6306 C   0  0  0  0  0  0  0  0  0  0  0  0
   -3.6793   12.0246    8.6987 O   0  0  0  0  0  0  0  0  0  0  0  0
   -3.9941   14.2719    7.7890 C   0  0  0  0  0  0  0  0  0  0  0  0
   -2.8074   14.7853    8.3815 O   0  0  0  0  0  0  0  0  0  0  0  0
   -4.9304   15.3333    7.6940 O   0  0  0  0  0  0  0  0  0  0  0  0
   -6.0833   14.9493    6.9345 C   0  0  0  0  0  0  0  0  0  0  0  0
   -6.8908   12.5021    9.8356 H   0  0  0  0  0  0  0  0  0  0  0  0
   -3.8925   11.4010    7.9851 H   0  0  0  0  0  0  0  0  0  0  0  0
   -2.8173   14.5339    9.3203 H   0  0  0  0  0  0  0  0  0  0  0  0
   -6.9072   16.2267    6.7093 C   0  0  0  0  0  0  0  0  0  0  0  0
   -6.9307   17.0139    7.8996 O   0  0  0  0  0  0  0  0  0  0  0  0
   -5.9921   17.1958    8.1086 H   0  0  0  0  0  0  0  0  0  0  0  0
 14 15  1  0
 14 16  1  0
  2  3  1  0
  2  9  1  0
  2 15  1  0
  3  4  1  0
  4  5  1  0
  4  1  1  0
  1 17  1  0
 17 18  1  0
 17 25  1  0
 18 19  1  0
 18 20  1  0
 19 26  1  0
 20 21  1  0
 20 22  1  0
 21 27  1  0
 22 24  1  0
 22 23  1  0
 23 28  1  0
 24 25  1  0
 25 29  1  0
 29 30  1  0
 30 31  1  0
  5  6  1  0
  5  7  1  0
  6 11  1  0
  7  8  1  0
  7  9  1  0
  8 12  1  0
  9 10  1  0
 10 13  1  0
M  END
> <minimizedAffinity>
-4.25217

> <CNNscore>
0.7851135135

> <CNNaffinity>
3.0346825123

> <CNN_VS>
2.3825702667

> <CNNaffinity_variance>
0.3536070883

$$$$
