


 31 32  0  0  0  0  0  0  0  0999 V2000
   19.8009    6.9354   -0.9170 O   0  0  0  0  0  0  0  0  0  0  0  0
   19.0614    5.9355    2.4585 C   0  0  0  0  0  0  0  0  0  0  0  0
   19.7751    6.4060    1.3202 O   0  0  0  0  0  0  0  0  0  0  0  0
   18.9783    6.4450    0.1486 C   0  0  0  0  0  0  0  0  0  0  0  0
   18.5119    5.0156   -0.2159 C   0  0  0  0  0  0  0  0  0  0  0  0
   17.3936    5.0737   -1.1237 O   0  0  0  0  0  0  0  0  0  0  0  0
   18.0924    4.1718    1.0023 C   0  0  0  0  0  0  0  0  0  0  0  0
   18.1316    2.7857    0.6056 O   0  0  0  0  0  0  0  0  0  0  0  0
   18.9230    4.4197    2.2735 C   0  0  0  0  0  0  0  0  0  0  0  0
   18.2989    3.7440    3.3619 O   0  0  0  0  0  0  0  0  0  0  0  0
   16.9948    4.1808   -1.1221 H   0  0  0  0  0  0  0  0  0  0  0  0
   19.0036    2.4302    0.8491 H   0  0  0  0  0  0  0  0  0  0  0  0
   17.8536    4.4054    3.9269 H   0  0  0  0  0  0  0  0  0  0  0  0
   19.2401    5.8784    4.8881 O   0  0  0  0  0  0  0  0  0  0  0  0
   19.8518    6.3663    3.7002 C   0  0  0  0  0  0  0  0  0  0  0  0
   19.9035    5.9826    5.5950 H   0  0  0  0  0  0  0  0  0  0  0  0
   19.3517    8.1490   -1.5605 C   0  0  0  0  0  0  0  0  0  0  0  0
   17.8357    8.1356   -1.8920 C   0  0  0  0  0  0  0  0  0  0  0  0
   17.5724    7.4168   -3.1155 O   0  0  0  0  0  0  0  0  0  0  0  0
   17.2057    9.5249   -2.0760 C   0  0  0  0  0  0  0  0  0  0  0  0
   15.7686    9.4477   -2.0546 O   0  0  0  0  0  0  0  0  0  0  0  0
   17.7081   10.5186   -1.0210 C   0  0  0  0  0  0  0  0  0  0  0  0
   17.2498   11.8371   -1.2937 O   0  0  0  0  0  0  0  0  0  0  0  0
   19.1265   10.5384   -1.0265 O   0  0  0  0  0  0  0  0  0  0  0  0
   19.6702    9.2930   -0.5717 C   0  0  0  0  0  0  0  0  0  0  0  0
   18.1867    7.7334   -3.8004 H   0  0  0  0  0  0  0  0  0  0  0  0
   15.5028    8.7217   -1.4666 H   0  0  0  0  0  0  0  0  0  0  0  0
   17.0012   11.8715   -2.2326 H   0  0  0  0  0  0  0  0  0  0  0  0
   21.1827    9.5076   -0.4058 C   0  0  0  0  0  0  0  0  0  0  0  0
   21.6917    8.6546    0.6190 O   0  0  0  0  0  0  0  0  0  0  0  0
   21.4628    7.7457    0.3372 H   0  0  0  0  0  0  0  0  0  0  0  0
 14 15  1  0
 14 16  1  0
  2  3  1  0
  2  9  1  0
  2 15  1  0
  3  4  1  0
  4  5  1  0
  4  1  1  0
  1 17  1  0
 17 18  1  0
 17 25  1  0
 18 19  1  0
 18 20  1  0
 19 26  1  0
 20 21  1  0
 20 22  1  0
 21 27  1  0
 22 24  1  0
 22 23  1  0
 23 28  1  0
 24 25  1  0
 25 29  1  0
 29 30  1  0
 30 31  1  0
  5  6  1  0
  5  7  1  0
  6 11  1  0
  7  8  1  0
  7  9  1  0
  8 12  1  0
  9 10  1  0
 10 13  1  0
M  END
> <minimizedAffinity>
-4.98899

> <CNNscore>
0.9345418215

> <CNNaffinity>
2.9240570068

> <CNN_VS>
2.7326536179

> <CNNaffinity_variance>
0.7188282013

$$$$



 31 32  0  0  0  0  0  0  0  0999 V2000
   19.7604    4.8963   -0.5406 O   0  0  0  0  0  0  0  0  0  0  0  0
   19.7800    6.8797    2.4605 C   0  0  0  0  0  0  0  0  0  0  0  0
   20.2197    6.2422    1.2660 O   0  0  0  0  0  0  0  0  0  0  0  0
   19.2008    5.4791    0.6426 C   0  0  0  0  0  0  0  0  0  0  0  0
   18.7533    4.3349    1.5829 C   0  0  0  0  0  0  0  0  0  0  0  0
   17.4726    3.8208    1.1660 O   0  0  0  0  0  0  0  0  0  0  0  0
   18.6389    4.7562    3.0598 C   0  0  0  0  0  0  0  0  0  0  0  0
   18.6766    3.5560    3.8587 O   0  0  0  0  0  0  0  0  0  0  0  0
   19.6945    5.7760    3.5215 C   0  0  0  0  0  0  0  0  0  0  0  0
   19.3442    6.2325    4.8251 O   0  0  0  0  0  0  0  0  0  0  0  0
   17.1345    3.2915    1.9157 H   0  0  0  0  0  0  0  0  0  0  0  0
   19.5989    3.4064    4.1291 H   0  0  0  0  0  0  0  0  0  0  0  0
   18.9854    7.1388    4.7535 H   0  0  0  0  0  0  0  0  0  0  0  0
   20.3832    8.7308    3.9261 O   0  0  0  0  0  0  0  0  0  0  0  0
   20.7797    8.0003    2.7717 C   0  0  0  0  0  0  0  0  0  0  0  0
   21.1614    9.2532    4.1947 H   0  0  0  0  0  0  0  0  0  0  0  0
   19.2482    5.3925   -1.7975 C   0  0  0  0  0  0  0  0  0  0  0  0
   20.1166    6.5278   -2.4018 C   0  0  0  0  0  0  0  0  0  0  0  0
   19.8074    7.8024   -1.7992 O   0  0  0  0  0  0  0  0  0  0  0  0
   19.9510    6.7270   -3.9164 C   0  0  0  0  0  0  0  0  0  0  0  0
   21.0034    7.5531   -4.4472 O   0  0  0  0  0  0  0  0  0  0  0  0
   19.8903    5.3869   -4.6603 C   0  0  0  0  0  0  0  0  0  0  0  0
   19.5747    5.5729   -6.0346 O   0  0  0  0  0  0  0  0  0  0  0  0
   18.8814    4.5717   -4.0860 O   0  0  0  0  0  0  0  0  0  0  0  0
   19.2226    4.1770   -2.7514 C   0  0  0  0  0  0  0  0  0  0  0  0
   18.8414    7.9187   -1.7965 H   0  0  0  0  0  0  0  0  0  0  0  0
   21.8107    7.4036   -3.9282 H   0  0  0  0  0  0  0  0  0  0  0  0
   19.1608    6.4479   -6.1233 H   0  0  0  0  0  0  0  0  0  0  0  0
   18.1831    3.1294   -2.3230 C   0  0  0  0  0  0  0  0  0  0  0  0
   17.0919    3.7627   -1.6556 O   0  0  0  0  0  0  0  0  0  0  0  0
   16.7385    4.4129   -2.2960 H   0  0  0  0  0  0  0  0  0  0  0  0
 14 15  1  0
 14 16  1  0
  2  3  1  0
  2  9  1  0
  2 15  1  0
  3  4  1  0
  4  5  1  0
  4  1  1  0
  1 17  1  0
 17 18  1  0
 17 25  1  0
 18 19  1  0
 18 20  1  0
 19 26  1  0
 20 21  1  0
 20 22  1  0
 21 27  1  0
 22 24  1  0
 22 23  1  0
 23 28  1  0
 24 25  1  0
 25 29  1  0
 29 30  1  0
 30 31  1  0
  5  6  1  0
  5  7  1  0
  6 11  1  0
  7  8  1  0
  7  9  1  0
  8 12  1  0
  9 10  1  0
 10 13  1  0
M  END
> <minimizedAffinity>
-5.15554

> <CNNscore>
0.8640155792

> <CNNaffinity>
3.1876895428

> <CNN_VS>
2.7542133331

> <CNNaffinity_variance>
0.4062453806

$$$$



 31 32  0  0  0  0  0  0  0  0999 V2000
   20.0600    4.8427    0.4614 O   0  0  0  0  0  0  0  0  0  0  0  0
   19.9017    7.4035    2.9829 C   0  0  0  0  0  0  0  0  0  0  0  0
   20.3757    6.6049    1.9039 O   0  0  0  0  0  0  0  0  0  0  0  0
   19.4777    5.5661    1.5524 C   0  0  0  0  0  0  0  0  0  0  0  0
   19.3078    4.5945    2.7442 C   0  0  0  0  0  0  0  0  0  0  0  0
   18.1200    3.7963    2.5697 O   0  0  0  0  0  0  0  0  0  0  0  0
   19.2102    5.3005    4.1095 C   0  0  0  0  0  0  0  0  0  0  0  0
   19.5178    4.3251    5.1265 O   0  0  0  0  0  0  0  0  0  0  0  0
   20.0870    6.5572    4.2480 C   0  0  0  0  0  0  0  0  0  0  0  0
   19.7407    7.2202    5.4609 O   0  0  0  0  0  0  0  0  0  0  0  0
   17.9324    3.3931    3.4408 H   0  0  0  0  0  0  0  0  0  0  0  0
   20.4669    4.3933    5.3281 H   0  0  0  0  0  0  0  0  0  0  0  0
   19.2176    8.0167    5.2439 H   0  0  0  0  0  0  0  0  0  0  0  0
   22.0935    8.4667    3.0478 O   0  0  0  0  0  0  0  0  0  0  0  0
   20.6957    8.7154    2.9600 C   0  0  0  0  0  0  0  0  0  0  0  0
   22.5318    9.3000    2.7944 H   0  0  0  0  0  0  0  0  0  0  0  0
   19.3510    4.9084   -0.7961 C   0  0  0  0  0  0  0  0  0  0  0  0
   17.9895    5.6454   -0.6881 C   0  0  0  0  0  0  0  0  0  0  0  0
   16.9590    4.7724   -0.1792 O   0  0  0  0  0  0  0  0  0  0  0  0
   17.4524    6.2013   -2.0161 C   0  0  0  0  0  0  0  0  0  0  0  0
   16.3789    7.1331   -1.7899 O   0  0  0  0  0  0  0  0  0  0  0  0
   18.5644    6.8516   -2.8488 C   0  0  0  0  0  0  0  0  0  0  0  0
   18.0958    7.2166   -4.1410 O   0  0  0  0  0  0  0  0  0  0  0  0
   19.6317    5.9318   -3.0140 O   0  0  0  0  0  0  0  0  0  0  0  0
   20.2872    5.6599   -1.7690 C   0  0  0  0  0  0  0  0  0  0  0  0
   16.9872    3.9359   -0.6755 H   0  0  0  0  0  0  0  0  0  0  0  0
   16.5329    7.5893   -0.9463 H   0  0  0  0  0  0  0  0  0  0  0  0
   17.2947    6.6959   -4.3190 H   0  0  0  0  0  0  0  0  0  0  0  0
   21.5461    4.8445   -2.1035 C   0  0  0  0  0  0  0  0  0  0  0  0
   21.3274    3.4628   -1.8208 O   0  0  0  0  0  0  0  0  0  0  0  0
   20.5516    3.2075   -2.3601 H   0  0  0  0  0  0  0  0  0  0  0  0
 14 15  1  0
 14 16  1  0
  2  3  1  0
  2  9  1  0
  2 15  1  0
  3  4  1  0
  4  5  1  0
  4  1  1  0
  1 17  1  0
 17 18  1  0
 17 25  1  0
 18 19  1  0
 18 20  1  0
 19 26  1  0
 20 21  1  0
 20 22  1  0
 21 27  1  0
 22 24  1  0
 22 23  1  0
 23 28  1  0
 24 25  1  0
 25 29  1  0
 29 30  1  0
 30 31  1  0
  5  6  1  0
  5  7  1  0
  6 11  1  0
  7  8  1  0
  7  9  1  0
  8 12  1  0
  9 10  1  0
 10 13  1  0
M  END
> <minimizedAffinity>
-4.56764

> <CNNscore>
0.8529555202

> <CNNaffinity>
2.9047260284

> <CNN_VS>
2.4776020050

> <CNNaffinity_variance>
0.6704350114

$$$$



 31 32  0  0  0  0  0  0  0  0999 V2000
   18.7974    5.6942    1.7187 O   0  0  0  0  0  0  0  0  0  0  0  0
   20.0164    5.9855   -1.6531 C   0  0  0  0  0  0  0  0  0  0  0  0
   19.5271    6.3391   -0.3639 O   0  0  0  0  0  0  0  0  0  0  0  0
   19.2772    5.2116    0.4579 C   0  0  0  0  0  0  0  0  0  0  0  0
   18.1735    4.3337   -0.1782 C   0  0  0  0  0  0  0  0  0  0  0  0
   18.1965    3.0119    0.3967 O   0  0  0  0  0  0  0  0  0  0  0  0
   18.3007    4.1901   -1.7064 C   0  0  0  0  0  0  0  0  0  0  0  0
   17.0171    3.7695   -2.2120 O   0  0  0  0  0  0  0  0  0  0  0  0
   18.8088    5.4488   -2.4307 C   0  0  0  0  0  0  0  0  0  0  0  0
   19.0799    5.1121   -3.7886 O   0  0  0  0  0  0  0  0  0  0  0  0
   17.6645    2.4468   -0.1984 H   0  0  0  0  0  0  0  0  0  0  0  0
   16.5260    4.5656   -2.4787 H   0  0  0  0  0  0  0  0  0  0  0  0
   20.0481    5.0582   -3.9104 H   0  0  0  0  0  0  0  0  0  0  0  0
   21.2327    8.0551   -1.2337 O   0  0  0  0  0  0  0  0  0  0  0  0
   20.6664    7.2390   -2.2518 C   0  0  0  0  0  0  0  0  0  0  0  0
   21.8165    8.6888   -1.6900 H   0  0  0  0  0  0  0  0  0  0  0  0
   19.8070    6.0465    2.6909 C   0  0  0  0  0  0  0  0  0  0  0  0
   20.0126    7.5788    2.8251 C   0  0  0  0  0  0  0  0  0  0  0  0
   20.8723    8.0863    1.7827 O   0  0  0  0  0  0  0  0  0  0  0  0
   20.6472    8.0286    4.1502 C   0  0  0  0  0  0  0  0  0  0  0  0
   20.5066    9.4492    4.3347 O   0  0  0  0  0  0  0  0  0  0  0  0
   20.0593    7.2689    5.3461 C   0  0  0  0  0  0  0  0  0  0  0  0
   20.7616    7.5705    6.5455 O   0  0  0  0  0  0  0  0  0  0  0  0
   20.1630    5.8727    5.1174 O   0  0  0  0  0  0  0  0  0  0  0  0
   19.3234    5.4548    4.0340 C   0  0  0  0  0  0  0  0  0  0  0  0
   21.6634    7.5223    1.7303 H   0  0  0  0  0  0  0  0  0  0  0  0
   19.6795    9.7389    3.9159 H   0  0  0  0  0  0  0  0  0  0  0  0
   21.6310    7.9246    6.2937 H   0  0  0  0  0  0  0  0  0  0  0  0
   19.3445    3.9183    4.0283 C   0  0  0  0  0  0  0  0  0  0  0  0
   20.5047    3.4392    4.7076 O   0  0  0  0  0  0  0  0  0  0  0  0
   20.4525    3.8179    5.6085 H   0  0  0  0  0  0  0  0  0  0  0  0
 14 15  1  0
 14 16  1  0
  2  3  1  0
  2  9  1  0
  2 15  1  0
  3  4  1  0
  4  5  1  0
  4  1  1  0
  1 17  1  0
 17 18  1  0
 17 25  1  0
 18 19  1  0
 18 20  1  0
 19 26  1  0
 20 21  1  0
 20 22  1  0
 21 27  1  0
 22 24  1  0
 22 23  1  0
 23 28  1  0
 24 25  1  0
 25 29  1  0
 29 30  1  0
 30 31  1  0
  5  6  1  0
  5  7  1  0
  6 11  1  0
  7  8  1  0
  7  9  1  0
  8 12  1  0
  9 10  1  0
 10 13  1  0
M  END
> <minimizedAffinity>
-4.85755

> <CNNscore>
0.8403367996

> <CNNaffinity>
3.2570848465

> <CNN_VS>
2.7370481491

> <CNNaffinity_variance>
0.4103024304

$$$$



 31 32  0  0  0  0  0  0  0  0999 V2000
   18.7892    6.0041    1.7486 O   0  0  0  0  0  0  0  0  0  0  0  0
   20.4123    5.5274   -1.4261 C   0  0  0  0  0  0  0  0  0  0  0  0
   19.8332    6.1662   -0.2933 O   0  0  0  0  0  0  0  0  0  0  0  0
   19.3379    5.2457    0.6640 C   0  0  0  0  0  0  0  0  0  0  0  0
   18.2029    4.3999    0.0394 C   0  0  0  0  0  0  0  0  0  0  0  0
   17.9772    3.2127    0.8255 O   0  0  0  0  0  0  0  0  0  0  0  0
   18.4820    3.9642   -1.4112 C   0  0  0  0  0  0  0  0  0  0  0  0
   17.2185    3.6096   -2.0095 O   0  0  0  0  0  0  0  0  0  0  0  0
   19.2385    5.0007   -2.2601 C   0  0  0  0  0  0  0  0  0  0  0  0
   19.6130    4.3910   -3.4925 O   0  0  0  0  0  0  0  0  0  0  0  0
   17.4433    2.6135    0.2666 H   0  0  0  0  0  0  0  0  0  0  0  0
   16.8758    4.3947   -2.4704 H   0  0  0  0  0  0  0  0  0  0  0  0
   20.5719    4.2037   -3.4702 H   0  0  0  0  0  0  0  0  0  0  0  0
   21.5073    7.7009   -1.3024 O   0  0  0  0  0  0  0  0  0  0  0  0
   21.2933    6.5654   -2.1320 C   0  0  0  0  0  0  0  0  0  0  0  0
   22.2452    8.1941   -1.7059 H   0  0  0  0  0  0  0  0  0  0  0  0
   19.3802    5.7758    3.0475 C   0  0  0  0  0  0  0  0  0  0  0  0
   19.6571    4.2759    3.3337 C   0  0  0  0  0  0  0  0  0  0  0  0
   18.4645    3.5984    3.7829 O   0  0  0  0  0  0  0  0  0  0  0  0
   20.7215    4.0127    4.4102 C   0  0  0  0  0  0  0  0  0  0  0  0
   21.1512    2.6392    4.3874 O   0  0  0  0  0  0  0  0  0  0  0  0
   21.9221    4.9558    4.2618 C   0  0  0  0  0  0  0  0  0  0  0  0
   22.8244    4.8188    5.3526 O   0  0  0  0  0  0  0  0  0  0  0  0
   21.4682    6.2996    4.2353 O   0  0  0  0  0  0  0  0  0  0  0  0
   20.7045    6.5720    3.0538 C   0  0  0  0  0  0  0  0  0  0  0  0
   18.0520    4.1289    4.4866 H   0  0  0  0  0  0  0  0  0  0  0  0
   21.1010    2.3106    3.4747 H   0  0  0  0  0  0  0  0  0  0  0  0
   22.3355    4.4102    6.0865 H   0  0  0  0  0  0  0  0  0  0  0  0
   20.4651    8.0897    3.0249 C   0  0  0  0  0  0  0  0  0  0  0  0
   21.5775    8.7747    3.5997 O   0  0  0  0  0  0  0  0  0  0  0  0
   22.3532    8.4995    3.0702 H   0  0  0  0  0  0  0  0  0  0  0  0
 14 15  1  0
 14 16  1  0
  2  3  1  0
  2  9  1  0
  2 15  1  0
  3  4  1  0
  4  5  1  0
  4  1  1  0
  1 17  1  0
 17 18  1  0
 17 25  1  0
 18 19  1  0
 18 20  1  0
 19 26  1  0
 20 21  1  0
 20 22  1  0
 21 27  1  0
 22 24  1  0
 22 23  1  0
 23 28  1  0
 24 25  1  0
 25 29  1  0
 29 30  1  0
 30 31  1  0
  5  6  1  0
  5  7  1  0
  6 11  1  0
  7  8  1  0
  7  9  1  0
  8 12  1  0
  9 10  1  0
 10 13  1  0
M  END
> <minimizedAffinity>
-5.10071

> <CNNscore>
0.7966667414

> <CNNaffinity>
3.3136663437

> <CNN_VS>
2.6398878098

> <CNNaffinity_variance>
0.6358353496

$$$$



 31 32  0  0  0  0  0  0  0  0999 V2000
   19.6739    5.2091   -1.2180 O   0  0  0  0  0  0  0  0  0  0  0  0
   18.3088    8.4000   -2.1640 C   0  0  0  0  0  0  0  0  0  0  0  0
   18.8101    7.3348   -1.3638 O   0  0  0  0  0  0  0  0  0  0  0  0
   19.1854    6.2018   -2.1284 C   0  0  0  0  0  0  0  0  0  0  0  0
   17.9470    5.6268   -2.8558 C   0  0  0  0  0  0  0  0  0  0  0  0
   18.3599    4.7641   -3.9345 O   0  0  0  0  0  0  0  0  0  0  0  0
   17.0154    6.7055   -3.4392 C   0  0  0  0  0  0  0  0  0  0  0  0
   15.7281    6.0944   -3.6618 O   0  0  0  0  0  0  0  0  0  0  0  0
   16.8959    7.9814   -2.5876 C   0  0  0  0  0  0  0  0  0  0  0  0
   16.1866    8.9630   -3.3386 O   0  0  0  0  0  0  0  0  0  0  0  0
   17.5702    4.6337   -4.4964 H   0  0  0  0  0  0  0  0  0  0  0  0
   15.1794    6.2596   -2.8758 H   0  0  0  0  0  0  0  0  0  0  0  0
   16.8221    9.6349   -3.6544 H   0  0  0  0  0  0  0  0  0  0  0  0
   19.7145    9.9438   -0.9074 O   0  0  0  0  0  0  0  0  0  0  0  0
   18.3787    9.6765   -1.3168 C   0  0  0  0  0  0  0  0  0  0  0  0
   19.7190   10.8648   -0.5876 H   0  0  0  0  0  0  0  0  0  0  0  0
   19.3562    5.4138    0.1768 C   0  0  0  0  0  0  0  0  0  0  0  0
   18.3295    4.3863    0.7232 C   0  0  0  0  0  0  0  0  0  0  0  0
   16.9783    4.7633    0.3840 O   0  0  0  0  0  0  0  0  0  0  0  0
   18.3468    4.2099    2.2495 C   0  0  0  0  0  0  0  0  0  0  0  0
   17.6179    3.0323    2.6420 O   0  0  0  0  0  0  0  0  0  0  0  0
   19.7785    4.1656    2.7982 C   0  0  0  0  0  0  0  0  0  0  0  0
   19.7869    4.1665    4.2204 O   0  0  0  0  0  0  0  0  0  0  0  0
   20.4908    5.3097    2.3555 O   0  0  0  0  0  0  0  0  0  0  0  0
   20.6950    5.2843    0.9374 C   0  0  0  0  0  0  0  0  0  0  0  0
   16.8509    5.7008    0.6111 H   0  0  0  0  0  0  0  0  0  0  0  0
   17.7018    2.3644    1.9417 H   0  0  0  0  0  0  0  0  0  0  0  0
   18.9286    4.5127    4.5173 H   0  0  0  0  0  0  0  0  0  0  0  0
   21.6578    6.4366    0.6107 C   0  0  0  0  0  0  0  0  0  0  0  0
   20.9320    7.6556    0.4553 O   0  0  0  0  0  0  0  0  0  0  0  0
   20.4553    7.7831    1.3005 H   0  0  0  0  0  0  0  0  0  0  0  0
 14 15  1  0
 14 16  1  0
  2  3  1  0
  2  9  1  0
  2 15  1  0
  3  4  1  0
  4  5  1  0
  4  1  1  0
  1 17  1  0
 17 18  1  0
 17 25  1  0
 18 19  1  0
 18 20  1  0
 19 26  1  0
 20 21  1  0
 20 22  1  0
 21 27  1  0
 22 24  1  0
 22 23  1  0
 23 28  1  0
 24 25  1  0
 25 29  1  0
 29 30  1  0
 30 31  1  0
  5  6  1  0
  5  7  1  0
  6 11  1  0
  7  8  1  0
  7  9  1  0
  8 12  1  0
  9 10  1  0
 10 13  1  0
M  END
> <minimizedAffinity>
-5.03015

> <CNNscore>
0.7555998564

> <CNNaffinity>
3.4956693649

> <CNN_VS>
2.6413273811

> <CNNaffinity_variance>
0.8099367023

$$$$



 31 32  0  0  0  0  0  0  0  0999 V2000
   18.8550    5.2721    1.9813 O   0  0  0  0  0  0  0  0  0  0  0  0
   22.2441    4.3965    2.8106 C   0  0  0  0  0  0  0  0  0  0  0  0
   21.0407    4.5645    2.0689 O   0  0  0  0  0  0  0  0  0  0  0  0
   20.0013    5.1525    2.8324 C   0  0  0  0  0  0  0  0  0  0  0  0
   19.6330    4.2273    4.0164 C   0  0  0  0  0  0  0  0  0  0  0  0
   18.9018    4.9657    5.0157 O   0  0  0  0  0  0  0  0  0  0  0  0
   20.8526    3.5812    4.6999 C   0  0  0  0  0  0  0  0  0  0  0  0
   20.3812    2.4352    5.4377 O   0  0  0  0  0  0  0  0  0  0  0  0
   22.0008    3.2067    3.7466 C   0  0  0  0  0  0  0  0  0  0  0  0
   23.1309    2.8246    4.5261 O   0  0  0  0  0  0  0  0  0  0  0  0
   18.9140    4.4154    5.8241 H   0  0  0  0  0  0  0  0  0  0  0  0
   20.4760    1.6532    4.8671 H   0  0  0  0  0  0  0  0  0  0  0  0
   23.7891    3.5465    4.4979 H   0  0  0  0  0  0  0  0  0  0  0  0
   22.8707    3.7744    0.5393 O   0  0  0  0  0  0  0  0  0  0  0  0
   23.3788    4.2013    1.7975 C   0  0  0  0  0  0  0  0  0  0  0  0
   23.5961    3.8982   -0.1002 H   0  0  0  0  0  0  0  0  0  0  0  0
   19.1141    5.2594    0.5596 C   0  0  0  0  0  0  0  0  0  0  0  0
   18.1197    4.3683   -0.2313 C   0  0  0  0  0  0  0  0  0  0  0  0
   18.5005    2.9774   -0.1729 O   0  0  0  0  0  0  0  0  0  0  0  0
   17.9987    4.7093   -1.7246 C   0  0  0  0  0  0  0  0  0  0  0  0
   16.8452    4.0759   -2.3077 O   0  0  0  0  0  0  0  0  0  0  0  0
   17.9570    6.2249   -1.9578 C   0  0  0  0  0  0  0  0  0  0  0  0
   18.0096    6.5357   -3.3446 O   0  0  0  0  0  0  0  0  0  0  0  0
   19.0756    6.8314   -1.3305 O   0  0  0  0  0  0  0  0  0  0  0  0
   18.9961    6.7289    0.0966 C   0  0  0  0  0  0  0  0  0  0  0  0
   19.4472    2.9052   -0.3859 H   0  0  0  0  0  0  0  0  0  0  0  0
   16.1513    4.0059   -1.6316 H   0  0  0  0  0  0  0  0  0  0  0  0
   18.3768    5.7617   -3.8037 H   0  0  0  0  0  0  0  0  0  0  0  0
   20.1240    7.6049    0.6641 C   0  0  0  0  0  0  0  0  0  0  0  0
   21.3952    7.0608    0.3107 O   0  0  0  0  0  0  0  0  0  0  0  0
   21.3972    7.0204   -0.6671 H   0  0  0  0  0  0  0  0  0  0  0  0
 14 15  1  0
 14 16  1  0
  2  3  1  0
  2  9  1  0
  2 15  1  0
  3  4  1  0
  4  5  1  0
  4  1  1  0
  1 17  1  0
 17 18  1  0
 17 25  1  0
 18 19  1  0
 18 20  1  0
 19 26  1  0
 20 21  1  0
 20 22  1  0
 21 27  1  0
 22 24  1  0
 22 23  1  0
 23 28  1  0
 24 25  1  0
 25 29  1  0
 29 30  1  0
 30 31  1  0
  5  6  1  0
  5  7  1  0
  6 11  1  0
  7  8  1  0
  7  9  1  0
  8 12  1  0
  9 10  1  0
 10 13  1  0
M  END
> <minimizedAffinity>
-4.85640

> <CNNscore>
0.7230264544

> <CNNaffinity>
3.3212108612

> <CNN_VS>
2.4013233185

> <CNNaffinity_variance>
0.6557416320

$$$$



 31 32  0  0  0  0  0  0  0  0999 V2000
   19.4265    5.3770   -1.3234 O   0  0  0  0  0  0  0  0  0  0  0  0
   20.6264    2.3485   -2.8497 C   0  0  0  0  0  0  0  0  0  0  0  0
   20.5966    3.6745   -2.3325 O   0  0  0  0  0  0  0  0  0  0  0  0
   19.3277    4.0343   -1.8135 C   0  0  0  0  0  0  0  0  0  0  0  0
   18.2719    4.0062   -2.9441 C   0  0  0  0  0  0  0  0  0  0  0  0
   16.9446    3.9560   -2.3838 O   0  0  0  0  0  0  0  0  0  0  0  0
   18.4273    2.8142   -3.9068 C   0  0  0  0  0  0  0  0  0  0  0  0
   17.7241    3.1424   -5.1225 O   0  0  0  0  0  0  0  0  0  0  0  0
   19.8822    2.4007   -4.1892 C   0  0  0  0  0  0  0  0  0  0  0  0
   19.8724    1.1718   -4.9105 O   0  0  0  0  0  0  0  0  0  0  0  0
   16.3500    3.6949   -3.1150 H   0  0  0  0  0  0  0  0  0  0  0  0
   18.3648    3.5324   -5.7418 H   0  0  0  0  0  0  0  0  0  0  0  0
   20.1374    0.4516   -4.3053 H   0  0  0  0  0  0  0  0  0  0  0  0
   22.2173    0.5395   -3.2167 O   0  0  0  0  0  0  0  0  0  0  0  0
   22.0989    1.9304   -2.9434 C   0  0  0  0  0  0  0  0  0  0  0  0
   23.1418    0.3966   -3.4913 H   0  0  0  0  0  0  0  0  0  0  0  0
   19.1812    5.5581    0.0892 C   0  0  0  0  0  0  0  0  0  0  0  0
   18.2535    4.4684    0.6894 C   0  0  0  0  0  0  0  0  0  0  0  0
   16.8639    4.7632    0.4338 O   0  0  0  0  0  0  0  0  0  0  0  0
   18.3729    4.2893    2.2108 C   0  0  0  0  0  0  0  0  0  0  0  0
   17.7418    3.0684    2.6386 O   0  0  0  0  0  0  0  0  0  0  0  0
   19.8350    4.3309    2.6727 C   0  0  0  0  0  0  0  0  0  0  0  0
   19.9286    4.3285    4.0919 O   0  0  0  0  0  0  0  0  0  0  0  0
   20.4487    5.5176    2.1956 O   0  0  0  0  0  0  0  0  0  0  0  0
   20.5686    5.5085    0.7677 C   0  0  0  0  0  0  0  0  0  0  0  0
   16.6937    5.6906    0.6740 H   0  0  0  0  0  0  0  0  0  0  0  0
   17.8239    2.4087    1.9304 H   0  0  0  0  0  0  0  0  0  0  0  0
   19.0702    4.6209    4.4416 H   0  0  0  0  0  0  0  0  0  0  0  0
   21.4383    6.7182    0.3915 C   0  0  0  0  0  0  0  0  0  0  0  0
   22.8018    6.3202    0.2521 O   0  0  0  0  0  0  0  0  0  0  0  0
   22.7994    5.6225   -0.4341 H   0  0  0  0  0  0  0  0  0  0  0  0
 14 15  1  0
 14 16  1  0
  2  3  1  0
  2  9  1  0
  2 15  1  0
  3  4  1  0
  4  5  1  0
  4  1  1  0
  1 17  1  0
 17 18  1  0
 17 25  1  0
 18 19  1  0
 18 20  1  0
 19 26  1  0
 20 21  1  0
 20 22  1  0
 21 27  1  0
 22 24  1  0
 22 23  1  0
 23 28  1  0
 24 25  1  0
 25 29  1  0
 29 30  1  0
 30 31  1  0
  5  6  1  0
  5  7  1  0
  6 11  1  0
  7  8  1  0
  7  9  1  0
  8 12  1  0
  9 10  1  0
 10 13  1  0
M  END
> <minimizedAffinity>
-5.45236

> <CNNscore>
0.7026191950

> <CNNaffinity>
3.7114660740

> <CNN_VS>
2.6077473164

> <CNNaffinity_variance>
0.0180041958

$$$$



 31 32  0  0  0  0  0  0  0  0999 V2000
   17.6943    4.7904   -1.0086 O   0  0  0  0  0  0  0  0  0  0  0  0
   19.3080    7.0535    1.2750 C   0  0  0  0  0  0  0  0  0  0  0  0
   18.9311    6.4033    0.0660 O   0  0  0  0  0  0  0  0  0  0  0  0
   17.9955    5.3586    0.2717 C   0  0  0  0  0  0  0  0  0  0  0  0
   18.6262    4.2569    1.1560 C   0  0  0  0  0  0  0  0  0  0  0  0
   17.5962    3.4155    1.7123 O   0  0  0  0  0  0  0  0  0  0  0  0
   19.4722    4.8060    2.3199 C   0  0  0  0  0  0  0  0  0  0  0  0
   20.3464    3.7466    2.7599 O   0  0  0  0  0  0  0  0  0  0  0  0
   20.2574    6.0888    1.9953 C   0  0  0  0  0  0  0  0  0  0  0  0
   20.8147    6.5973    3.2042 O   0  0  0  0  0  0  0  0  0  0  0  0
   18.0180    2.9114    2.4365 H   0  0  0  0  0  0  0  0  0  0  0  0
   21.1945    3.8469    2.2944 H   0  0  0  0  0  0  0  0  0  0  0  0
   20.3007    7.3813    3.4803 H   0  0  0  0  0  0  0  0  0  0  0  0
   21.3440    8.3132    0.8208 O   0  0  0  0  0  0  0  0  0  0  0  0
   19.9262    8.4036    0.8912 C   0  0  0  0  0  0  0  0  0  0  0  0
   21.6422    9.1159    0.3545 H   0  0  0  0  0  0  0  0  0  0  0  0
   18.7070    3.9303   -1.5770 C   0  0  0  0  0  0  0  0  0  0  0  0
   18.1997    2.4880   -1.8428 C   0  0  0  0  0  0  0  0  0  0  0  0
   18.2305    1.6907   -0.6401 O   0  0  0  0  0  0  0  0  0  0  0  0
   19.0088    1.7044   -2.8881 C   0  0  0  0  0  0  0  0  0  0  0  0
   18.3005    0.5254   -3.3124 O   0  0  0  0  0  0  0  0  0  0  0  0
   19.3718    2.5789   -4.0949 C   0  0  0  0  0  0  0  0  0  0  0  0
   20.2549    1.8990   -4.9784 O   0  0  0  0  0  0  0  0  0  0  0  0
   20.0222    3.7574   -3.6472 O   0  0  0  0  0  0  0  0  0  0  0  0
   19.1310    4.5984   -2.9043 C   0  0  0  0  0  0  0  0  0  0  0  0
   19.1007    1.7981   -0.2182 H   0  0  0  0  0  0  0  0  0  0  0  0
   17.3463    0.7034   -3.2760 H   0  0  0  0  0  0  0  0  0  0  0  0
   20.6758    1.1815   -4.4757 H   0  0  0  0  0  0  0  0  0  0  0  0
   19.8697    5.9256   -2.6718 C   0  0  0  0  0  0  0  0  0  0  0  0
   20.9426    5.7370   -1.7496 O   0  0  0  0  0  0  0  0  0  0  0  0
   21.5106    5.0480   -2.1501 H   0  0  0  0  0  0  0  0  0  0  0  0
 14 15  1  0
 14 16  1  0
  2  3  1  0
  2  9  1  0
  2 15  1  0
  3  4  1  0
  4  5  1  0
  4  1  1  0
  1 17  1  0
 17 18  1  0
 17 25  1  0
 18 19  1  0
 18 20  1  0
 19 26  1  0
 20 21  1  0
 20 22  1  0
 21 27  1  0
 22 24  1  0
 22 23  1  0
 23 28  1  0
 24 25  1  0
 25 29  1  0
 29 30  1  0
 30 31  1  0
  5  6  1  0
  5  7  1  0
  6 11  1  0
  7  8  1  0
  7  9  1  0
  8 12  1  0
  9 10  1  0
 10 13  1  0
M  END
> <minimizedAffinity>
-5.97789

> <CNNscore>
0.6294118762

> <CNNaffinity>
3.3249270916

> <CNN_VS>
2.0927486420

> <CNNaffinity_variance>
0.2506985962

$$$$



 31 32  0  0  0  0  0  0  0  0999 V2000
   19.0260    7.0972   -3.0546 O   0  0  0  0  0  0  0  0  0  0  0  0
   18.7438    5.4873    0.1500 C   0  0  0  0  0  0  0  0  0  0  0  0
   19.2966    6.1816   -0.9630 O   0  0  0  0  0  0  0  0  0  0  0  0
   18.3564    6.3913   -2.0029 C   0  0  0  0  0  0  0  0  0  0  0  0
   17.8783    5.0292   -2.5596 C   0  0  0  0  0  0  0  0  0  0  0  0
   16.6525    5.1971   -3.2996 O   0  0  0  0  0  0  0  0  0  0  0  0
   17.6354    3.9666   -1.4716 C   0  0  0  0  0  0  0  0  0  0  0  0
   17.6536    2.6751   -2.1133 O   0  0  0  0  0  0  0  0  0  0  0  0
   18.6155    4.0231   -0.2869 C   0  0  0  0  0  0  0  0  0  0  0  0
   18.1497    3.1396    0.7295 O   0  0  0  0  0  0  0  0  0  0  0  0
   16.2765    4.3012   -3.4104 H   0  0  0  0  0  0  0  0  0  0  0  0
   18.5570    2.3209   -2.0454 H   0  0  0  0  0  0  0  0  0  0  0  0
   17.7657    3.6711    1.4543 H   0  0  0  0  0  0  0  0  0  0  0  0
   20.4986    4.5915    1.5841 O   0  0  0  0  0  0  0  0  0  0  0  0
   19.6763    5.7270    1.3437 C   0  0  0  0  0  0  0  0  0  0  0  0
   21.2067    4.8935    2.1824 H   0  0  0  0  0  0  0  0  0  0  0  0
   18.6631    8.4862   -3.2198 C   0  0  0  0  0  0  0  0  0  0  0  0
   17.1288    8.7185   -3.2114 C   0  0  0  0  0  0  0  0  0  0  0  0
   16.5483    8.4372   -4.5026 O   0  0  0  0  0  0  0  0  0  0  0  0
   16.6973   10.1504   -2.8588 C   0  0  0  0  0  0  0  0  0  0  0  0
   15.2914   10.2066   -2.5549 O   0  0  0  0  0  0  0  0  0  0  0  0
   17.5229   10.7211   -1.6988 C   0  0  0  0  0  0  0  0  0  0  0  0
   17.2320   12.0968   -1.4855 O   0  0  0  0  0  0  0  0  0  0  0  0
   18.9044   10.6073   -2.0000 O   0  0  0  0  0  0  0  0  0  0  0  0
   19.3214    9.2370   -2.0404 C   0  0  0  0  0  0  0  0  0  0  0  0
   17.0747    8.8889   -5.1850 H   0  0  0  0  0  0  0  0  0  0  0  0
   15.0243    9.3639   -2.1525 H   0  0  0  0  0  0  0  0  0  0  0  0
   16.8315   12.4405   -2.3017 H   0  0  0  0  0  0  0  0  0  0  0  0
   20.8544    9.2464   -2.1463 C   0  0  0  0  0  0  0  0  0  0  0  0
   21.4003    8.1015   -1.4920 O   0  0  0  0  0  0  0  0  0  0  0  0
   20.9909    7.3304   -1.9342 H   0  0  0  0  0  0  0  0  0  0  0  0
 14 15  1  0
 14 16  1  0
  2  3  1  0
  2  9  1  0
  2 15  1  0
  3  4  1  0
  4  5  1  0
  4  1  1  0
  1 17  1  0
 17 18  1  0
 17 25  1  0
 18 19  1  0
 18 20  1  0
 19 26  1  0
 20 21  1  0
 20 22  1  0
 21 27  1  0
 22 24  1  0
 22 23  1  0
 23 28  1  0
 24 25  1  0
 25 29  1  0
 29 30  1  0
 30 31  1  0
  5  6  1  0
  5  7  1  0
  6 11  1  0
  7  8  1  0
  7  9  1  0
  8 12  1  0
  9 10  1  0
 10 13  1  0
M  END
> <minimizedAffinity>
-4.49667

> <CNNscore>
0.6150998473

> <CNNaffinity>
3.0964622498

> <CNN_VS>
1.9046334028

> <CNNaffinity_variance>
0.2926564217

$$$$



 31 32  0  0  0  0  0  0  0  0999 V2000
   19.7812    5.0279   -1.3941 O   0  0  0  0  0  0  0  0  0  0  0  0
   17.4664    5.8644   -4.0175 C   0  0  0  0  0  0  0  0  0  0  0  0
   18.1184    5.1432   -2.9777 O   0  0  0  0  0  0  0  0  0  0  0  0
   19.2163    5.8483   -2.4239 C   0  0  0  0  0  0  0  0  0  0  0  0
   20.2944    6.0760   -3.5099 C   0  0  0  0  0  0  0  0  0  0  0  0
   21.1997    7.1206   -3.1004 O   0  0  0  0  0  0  0  0  0  0  0  0
   19.7166    6.4592   -4.8851 C   0  0  0  0  0  0  0  0  0  0  0  0
   20.7325    6.1919   -5.8734 O   0  0  0  0  0  0  0  0  0  0  0  0
   18.3877    5.7695   -5.2394 C   0  0  0  0  0  0  0  0  0  0  0  0
   17.8671    6.3690   -6.4227 O   0  0  0  0  0  0  0  0  0  0  0  0
   21.6904    7.3860   -3.9037 H   0  0  0  0  0  0  0  0  0  0  0  0
   20.5784    5.2983   -6.2255 H   0  0  0  0  0  0  0  0  0  0  0  0
   17.1170    6.9455   -6.1775 H   0  0  0  0  0  0  0  0  0  0  0  0
   15.2710    6.0353   -5.0614 O   0  0  0  0  0  0  0  0  0  0  0  0
   16.0786    5.2386   -4.2033 C   0  0  0  0  0  0  0  0  0  0  0  0
   14.5155    5.4748   -5.3173 H   0  0  0  0  0  0  0  0  0  0  0  0
   19.3731    5.3335   -0.0418 C   0  0  0  0  0  0  0  0  0  0  0  0
   18.3662    4.3038    0.5364 C   0  0  0  0  0  0  0  0  0  0  0  0
   17.0207    4.5794    0.0927 O   0  0  0  0  0  0  0  0  0  0  0  0
   18.3026    4.2589    2.0709 C   0  0  0  0  0  0  0  0  0  0  0  0
   17.6088    3.0825    2.5253 O   0  0  0  0  0  0  0  0  0  0  0  0
   19.7003    4.3364    2.6981 C   0  0  0  0  0  0  0  0  0  0  0  0
   19.6255    4.4587    4.1130 O   0  0  0  0  0  0  0  0  0  0  0  0
   20.3822    5.4745    2.1958 O   0  0  0  0  0  0  0  0  0  0  0  0
   20.6699    5.3393    0.7985 C   0  0  0  0  0  0  0  0  0  0  0  0
   16.8360    5.5249    0.2293 H   0  0  0  0  0  0  0  0  0  0  0  0
   17.7649    2.3628    1.8920 H   0  0  0  0  0  0  0  0  0  0  0  0
   18.7359    4.7835    4.3315 H   0  0  0  0  0  0  0  0  0  0  0  0
   21.5944    6.5085    0.4245 C   0  0  0  0  0  0  0  0  0  0  0  0
   21.3446    7.6258    1.2767 O   0  0  0  0  0  0  0  0  0  0  0  0
   21.4930    7.2965    2.1862 H   0  0  0  0  0  0  0  0  0  0  0  0
 14 15  1  0
 14 16  1  0
  2  3  1  0
  2  9  1  0
  2 15  1  0
  3  4  1  0
  4  5  1  0
  4  1  1  0
  1 17  1  0
 17 18  1  0
 17 25  1  0
 18 19  1  0
 18 20  1  0
 19 26  1  0
 20 21  1  0
 20 22  1  0
 21 27  1  0
 22 24  1  0
 22 23  1  0
 23 28  1  0
 24 25  1  0
 25 29  1  0
 29 30  1  0
 30 31  1  0
  5  6  1  0
  5  7  1  0
  6 11  1  0
  7  8  1  0
  7  9  1  0
  8 12  1  0
  9 10  1  0
 10 13  1  0
M  END
> <minimizedAffinity>
-4.53704

> <CNNscore>
0.5923188925

> <CNNaffinity>
3.1986610889

> <CNN_VS>
1.8946274519

> <CNNaffinity_variance>
0.5227413177

$$$$



 31 32  0  0  0  0  0  0  0  0999 V2000
   18.7610    7.6878   -0.6770 O   0  0  0  0  0  0  0  0  0  0  0  0
   19.1165    4.2721   -1.7482 C   0  0  0  0  0  0  0  0  0  0  0  0
   18.7589    5.6500   -1.7416 O   0  0  0  0  0  0  0  0  0  0  0  0
   19.1709    6.3197   -0.5623 C   0  0  0  0  0  0  0  0  0  0  0  0
   18.4623    5.7015    0.6662 C   0  0  0  0  0  0  0  0  0  0  0  0
   19.1559    6.0663    1.8762 O   0  0  0  0  0  0  0  0  0  0  0  0
   18.3666    4.1651    0.6175 C   0  0  0  0  0  0  0  0  0  0  0  0
   17.3242    3.7651    1.5305 O   0  0  0  0  0  0  0  0  0  0  0  0
   18.1434    3.5786   -0.7873 C   0  0  0  0  0  0  0  0  0  0  0  0
   18.2885    2.1628   -0.7159 O   0  0  0  0  0  0  0  0  0  0  0  0
   18.8248    5.4642    2.5720 H   0  0  0  0  0  0  0  0  0  0  0  0
   16.4986    3.6823    1.0230 H   0  0  0  0  0  0  0  0  0  0  0  0
   19.1463    1.9157   -1.1137 H   0  0  0  0  0  0  0  0  0  0  0  0
   19.5687    2.4751   -3.3308 O   0  0  0  0  0  0  0  0  0  0  0  0
   19.0431    3.7906   -3.2025 C   0  0  0  0  0  0  0  0  0  0  0  0
   19.2799    2.1537   -4.2048 H   0  0  0  0  0  0  0  0  0  0  0  0
   18.3218    8.1126   -1.9866 C   0  0  0  0  0  0  0  0  0  0  0  0
   16.8798    8.6860   -1.9874 C   0  0  0  0  0  0  0  0  0  0  0  0
   15.8955    7.6311   -2.0250 O   0  0  0  0  0  0  0  0  0  0  0  0
   16.5551    9.6072   -3.1736 C   0  0  0  0  0  0  0  0  0  0  0  0
   15.3415   10.3447   -2.9383 O   0  0  0  0  0  0  0  0  0  0  0  0
   17.7149   10.5622   -3.4829 C   0  0  0  0  0  0  0  0  0  0  0  0
   17.4752   11.2961   -4.6773 O   0  0  0  0  0  0  0  0  0  0  0  0
   18.9084    9.8161   -3.6597 O   0  0  0  0  0  0  0  0  0  0  0  0
   19.3262    9.1973   -2.4366 C   0  0  0  0  0  0  0  0  0  0  0  0
   16.1380    7.0046   -2.7288 H   0  0  0  0  0  0  0  0  0  0  0  0
   15.2563   10.5112   -1.9851 H   0  0  0  0  0  0  0  0  0  0  0  0
   16.8058   10.8112   -5.1887 H   0  0  0  0  0  0  0  0  0  0  0  0
   20.7258    8.6168   -2.6928 C   0  0  0  0  0  0  0  0  0  0  0  0
   20.6218    7.3419   -3.3258 O   0  0  0  0  0  0  0  0  0  0  0  0
   20.1171    7.5015   -4.1489 H   0  0  0  0  0  0  0  0  0  0  0  0
 14 15  1  0
 14 16  1  0
  2  3  1  0
  2  9  1  0
  2 15  1  0
  3  4  1  0
  4  5  1  0
  4  1  1  0
  1 17  1  0
 17 18  1  0
 17 25  1  0
 18 19  1  0
 18 20  1  0
 19 26  1  0
 20 21  1  0
 20 22  1  0
 21 27  1  0
 22 24  1  0
 22 23  1  0
 23 28  1  0
 24 25  1  0
 25 29  1  0
 29 30  1  0
 30 31  1  0
  5  6  1  0
  5  7  1  0
  6 11  1  0
  7  8  1  0
  7  9  1  0
  8 12  1  0
  9 10  1  0
 10 13  1  0
M  END
> <minimizedAffinity>
-4.58025

> <CNNscore>
0.5687715411

> <CNNaffinity>
3.1568481922

> <CNN_VS>
1.7955254316

> <CNNaffinity_variance>
0.2363576442

$$$$



 31 32  0  0  0  0  0  0  0  0999 V2000
   18.9326    5.9979    2.5309 O   0  0  0  0  0  0  0  0  0  0  0  0
   19.9109    5.5247    5.9601 C   0  0  0  0  0  0  0  0  0  0  0  0
   19.4261    6.1407    4.7718 O   0  0  0  0  0  0  0  0  0  0  0  0
   19.4436    5.2696    3.6539 C   0  0  0  0  0  0  0  0  0  0  0  0
   20.8992    4.8499    3.3393 C   0  0  0  0  0  0  0  0  0  0  0  0
   20.9085    3.6743    2.5049 O   0  0  0  0  0  0  0  0  0  0  0  0
   21.7417    4.5501    4.5932 C   0  0  0  0  0  0  0  0  0  0  0  0
   23.1307    4.6303    4.2132 O   0  0  0  0  0  0  0  0  0  0  0  0
   21.4343    5.4475    5.8046 C   0  0  0  0  0  0  0  0  0  0  0  0
   22.1207    4.9274    6.9399 O   0  0  0  0  0  0  0  0  0  0  0  0
   21.8190    3.3197    2.5443 H   0  0  0  0  0  0  0  0  0  0  0  0
   23.4409    5.5321    4.4045 H   0  0  0  0  0  0  0  0  0  0  0  0
   21.4718    4.4879    7.5237 H   0  0  0  0  0  0  0  0  0  0  0  0
   18.2054    5.8581    7.6684 O   0  0  0  0  0  0  0  0  0  0  0  0
   19.4232    6.3712    7.1423 C   0  0  0  0  0  0  0  0  0  0  0  0
   18.0850    6.2865    8.5359 H   0  0  0  0  0  0  0  0  0  0  0  0
   19.2868    5.4865    1.2265 C   0  0  0  0  0  0  0  0  0  0  0  0
   18.1633    4.6301    0.5841 C   0  0  0  0  0  0  0  0  0  0  0  0
   18.1776    3.2792    1.0921 O   0  0  0  0  0  0  0  0  0  0  0  0
   18.2447    4.5056   -0.9453 C   0  0  0  0  0  0  0  0  0  0  0  0
   17.0166    3.9868   -1.4878 O   0  0  0  0  0  0  0  0  0  0  0  0
   18.6022    5.8440   -1.6040 C   0  0  0  0  0  0  0  0  0  0  0  0
   18.8355    5.6874   -2.9982 O   0  0  0  0  0  0  0  0  0  0  0  0
   19.7865    6.3592   -1.0172 O   0  0  0  0  0  0  0  0  0  0  0  0
   19.5764    6.7270    0.3518 C   0  0  0  0  0  0  0  0  0  0  0  0
   19.0891    2.9414    1.0511 H   0  0  0  0  0  0  0  0  0  0  0  0
   16.2783    4.2830   -0.9303 H   0  0  0  0  0  0  0  0  0  0  0  0
   19.0304    4.7488   -3.1581 H   0  0  0  0  0  0  0  0  0  0  0  0
   20.8418    7.4709    0.8067 C   0  0  0  0  0  0  0  0  0  0  0  0
   21.9951    6.6585    0.5903 O   0  0  0  0  0  0  0  0  0  0  0  0
   21.9937    6.4560   -0.3671 H   0  0  0  0  0  0  0  0  0  0  0  0
 14 15  1  0
 14 16  1  0
  2  3  1  0
  2  9  1  0
  2 15  1  0
  3  4  1  0
  4  5  1  0
  4  1  1  0
  1 17  1  0
 17 18  1  0
 17 25  1  0
 18 19  1  0
 18 20  1  0
 19 26  1  0
 20 21  1  0
 20 22  1  0
 21 27  1  0
 22 24  1  0
 22 23  1  0
 23 28  1  0
 24 25  1  0
 25 29  1  0
 29 30  1  0
 30 31  1  0
  5  6  1  0
  5  7  1  0
  6 11  1  0
  7  8  1  0
  7  9  1  0
  8 12  1  0
  9 10  1  0
 10 13  1  0
M  END
> <minimizedAffinity>
-5.00101

> <CNNscore>
0.5592828989

> <CNNaffinity>
3.0466735363

> <CNN_VS>
1.7039524317

> <CNNaffinity_variance>
0.4679357111

$$$$



 31 32  0  0  0  0  0  0  0  0999 V2000
   19.2603    6.3190    1.3699 O   0  0  0  0  0  0  0  0  0  0  0  0
   20.0030    6.6113    4.8775 C   0  0  0  0  0  0  0  0  0  0  0  0
   20.0777    6.7880    3.4669 O   0  0  0  0  0  0  0  0  0  0  0  0
   19.0848    6.0573    2.7675 C   0  0  0  0  0  0  0  0  0  0  0  0
   19.2835    4.5417    3.0068 C   0  0  0  0  0  0  0  0  0  0  0  0
   18.0811    3.8228    2.6668 O   0  0  0  0  0  0  0  0  0  0  0  0
   19.6550    4.1877    4.4589 C   0  0  0  0  0  0  0  0  0  0  0  0
   20.2481    2.8731    4.4479 O   0  0  0  0  0  0  0  0  0  0  0  0
   20.5648    5.2125    5.1583 C   0  0  0  0  0  0  0  0  0  0  0  0
   20.6504    4.8742    6.5400 O   0  0  0  0  0  0  0  0  0  0  0  0
   18.1752    2.9329    3.0613 H   0  0  0  0  0  0  0  0  0  0  0  0
   21.2128    2.9814    4.3864 H   0  0  0  0  0  0  0  0  0  0  0  0
   20.1083    5.5065    7.0512 H   0  0  0  0  0  0  0  0  0  0  0  0
   22.1247    7.3782    5.7988 O   0  0  0  0  0  0  0  0  0  0  0  0
   20.7838    7.7635    5.5217 C   0  0  0  0  0  0  0  0  0  0  0  0
   22.6105    8.2041    5.9790 H   0  0  0  0  0  0  0  0  0  0  0  0
   19.2330    5.1664    0.4985 C   0  0  0  0  0  0  0  0  0  0  0  0
   17.9546    5.0980   -0.3786 C   0  0  0  0  0  0  0  0  0  0  0  0
   16.8438    4.5406    0.3552 O   0  0  0  0  0  0  0  0  0  0  0  0
   18.0913    4.2438   -1.6485 C   0  0  0  0  0  0  0  0  0  0  0  0
   17.0015    4.4890   -2.5563 O   0  0  0  0  0  0  0  0  0  0  0  0
   19.4372    4.4779   -2.3462 C   0  0  0  0  0  0  0  0  0  0  0  0
   19.6251    3.5694   -3.4242 O   0  0  0  0  0  0  0  0  0  0  0  0
   20.4921    4.2805   -1.4185 O   0  0  0  0  0  0  0  0  0  0  0  0
   20.4869    5.2852   -0.3967 C   0  0  0  0  0  0  0  0  0  0  0  0
   17.1399    3.7248    0.7950 H   0  0  0  0  0  0  0  0  0  0  0  0
   16.7162    5.4126   -2.4605 H   0  0  0  0  0  0  0  0  0  0  0  0
   19.0279    2.8165   -3.2790 H   0  0  0  0  0  0  0  0  0  0  0  0
   21.7863    5.1053    0.4038 C   0  0  0  0  0  0  0  0  0  0  0  0
   22.5561    4.0342   -0.1411 O   0  0  0  0  0  0  0  0  0  0  0  0
   22.7131    4.2771   -1.0760 H   0  0  0  0  0  0  0  0  0  0  0  0
 14 15  1  0
 14 16  1  0
  2  3  1  0
  2  9  1  0
  2 15  1  0
  3  4  1  0
  4  5  1  0
  4  1  1  0
  1 17  1  0
 17 18  1  0
 17 25  1  0
 18 19  1  0
 18 20  1  0
 19 26  1  0
 20 21  1  0
 20 22  1  0
 21 27  1  0
 22 24  1  0
 22 23  1  0
 23 28  1  0
 24 25  1  0
 25 29  1  0
 29 30  1  0
 30 31  1  0
  5  6  1  0
  5  7  1  0
  6 11  1  0
  7  8  1  0
  7  9  1  0
  8 12  1  0
  9 10  1  0
 10 13  1  0
M  END
> <minimizedAffinity>
-5.33491

> <CNNscore>
0.5583823919

> <CNNaffinity>
3.0173759460

> <CNN_VS>
1.6848496199

> <CNNaffinity_variance>
0.7795186043

$$$$



 31 32  0  0  0  0  0  0  0  0999 V2000
   19.4332    5.3931   -2.8828 O   0  0  0  0  0  0  0  0  0  0  0  0
   19.3663    6.7140    0.4625 C   0  0  0  0  0  0  0  0  0  0  0  0
   19.8439    6.3201   -0.8194 O   0  0  0  0  0  0  0  0  0  0  0  0
   18.8347    5.7402   -1.6282 C   0  0  0  0  0  0  0  0  0  0  0  0
   18.3112    4.4444   -0.9645 C   0  0  0  0  0  0  0  0  0  0  0  0
   17.0378    4.0753   -1.5304 O   0  0  0  0  0  0  0  0  0  0  0  0
   18.1389    4.5567    0.5618 C   0  0  0  0  0  0  0  0  0  0  0  0
   18.1050    3.2172    1.0954 O   0  0  0  0  0  0  0  0  0  0  0  0
   19.1996    5.4196    1.2673 C   0  0  0  0  0  0  0  0  0  0  0  0
   18.8009    5.6106    2.6220 O   0  0  0  0  0  0  0  0  0  0  0  0
   16.6499    3.4160   -0.9211 H   0  0  0  0  0  0  0  0  0  0  0  0
   19.0089    2.9808    1.3660 H   0  0  0  0  0  0  0  0  0  0  0  0
   18.4715    6.5249    2.7252 H   0  0  0  0  0  0  0  0  0  0  0  0
   21.5922    7.6914    0.2936 O   0  0  0  0  0  0  0  0  0  0  0  0
   20.3811    7.7085    1.0396 C   0  0  0  0  0  0  0  0  0  0  0  0
   22.0838    8.4902    0.5597 H   0  0  0  0  0  0  0  0  0  0  0  0
   19.5139    3.9812   -3.1801 C   0  0  0  0  0  0  0  0  0  0  0  0
   18.7089    3.5795   -4.4446 C   0  0  0  0  0  0  0  0  0  0  0  0
   17.3073    3.4124   -4.1433 O   0  0  0  0  0  0  0  0  0  0  0  0
   19.1579    2.2652   -5.1018 C   0  0  0  0  0  0  0  0  0  0  0  0
   18.5994    2.1301   -6.4215 O   0  0  0  0  0  0  0  0  0  0  0  0
   20.6867    2.1491   -5.1488 C   0  0  0  0  0  0  0  0  0  0  0  0
   21.0933    0.8655   -5.6070 O   0  0  0  0  0  0  0  0  0  0  0  0
   21.2161    2.3368   -3.8462 O   0  0  0  0  0  0  0  0  0  0  0  0
   21.0152    3.6792   -3.3868 C   0  0  0  0  0  0  0  0  0  0  0  0
   17.2241    2.8522   -3.3521 H   0  0  0  0  0  0  0  0  0  0  0  0
   18.5011    3.0141   -6.8118 H   0  0  0  0  0  0  0  0  0  0  0  0
   20.3439    0.2596   -5.4812 H   0  0  0  0  0  0  0  0  0  0  0  0
   21.8173    3.8230   -2.0839 C   0  0  0  0  0  0  0  0  0  0  0  0
   22.5025    2.6059   -1.7906 O   0  0  0  0  0  0  0  0  0  0  0  0
   23.0675    2.4320   -2.5705 H   0  0  0  0  0  0  0  0  0  0  0  0
 14 15  1  0
 14 16  1  0
  2  3  1  0
  2  9  1  0
  2 15  1  0
  3  4  1  0
  4  5  1  0
  4  1  1  0
  1 17  1  0
 17 18  1  0
 17 25  1  0
 18 19  1  0
 18 20  1  0
 19 26  1  0
 20 21  1  0
 20 22  1  0
 21 27  1  0
 22 24  1  0
 22 23  1  0
 23 28  1  0
 24 25  1  0
 25 29  1  0
 29 30  1  0
 30 31  1  0
  5  6  1  0
  5  7  1  0
  6 11  1  0
  7  8  1  0
  7  9  1  0
  8 12  1  0
  9 10  1  0
 10 13  1  0
M  END
> <minimizedAffinity>
-5.34193

> <CNNscore>
0.5547046065

> <CNNaffinity>
3.7586829662

> <CNN_VS>
2.0849587917

> <CNNaffinity_variance>
0.0057660695

$$$$



 31 32  0  0  0  0  0  0  0  0999 V2000
   21.2555    4.9464    0.0737 O   0  0  0  0  0  0  0  0  0  0  0  0
   19.1503    4.6972   -2.8326 C   0  0  0  0  0  0  0  0  0  0  0  0
   19.6061    4.5913   -1.4882 O   0  0  0  0  0  0  0  0  0  0  0  0
   20.9152    5.1044   -1.3090 C   0  0  0  0  0  0  0  0  0  0  0  0
   21.9196    4.2847   -2.1534 C   0  0  0  0  0  0  0  0  0  0  0  0
   23.1486    5.0203   -2.3167 O   0  0  0  0  0  0  0  0  0  0  0  0
   21.3955    3.9169   -3.5540 C   0  0  0  0  0  0  0  0  0  0  0  0
   22.1850    2.8108   -4.0372 O   0  0  0  0  0  0  0  0  0  0  0  0
   19.8898    3.6065   -3.6165 C   0  0  0  0  0  0  0  0  0  0  0  0
   19.5061    3.4959   -4.9845 O   0  0  0  0  0  0  0  0  0  0  0  0
   23.6351    4.5801   -3.0420 H   0  0  0  0  0  0  0  0  0  0  0  0
   21.7169    1.9887   -3.8110 H   0  0  0  0  0  0  0  0  0  0  0  0
   19.0106    4.2997   -5.2365 H   0  0  0  0  0  0  0  0  0  0  0  0
   17.2088    3.7097   -1.7399 O   0  0  0  0  0  0  0  0  0  0  0  0
   17.6236    4.5536   -2.8073 C   0  0  0  0  0  0  0  0  0  0  0  0
   16.2493    3.8520   -1.6414 H   0  0  0  0  0  0  0  0  0  0  0  0
   20.3094    5.4804    1.0267 C   0  0  0  0  0  0  0  0  0  0  0  0
   19.5290    4.3781    1.7910 C   0  0  0  0  0  0  0  0  0  0  0  0
   18.4238    3.8790    1.0084 O   0  0  0  0  0  0  0  0  0  0  0  0
   18.9265    4.8286    3.1308 C   0  0  0  0  0  0  0  0  0  0  0  0
   18.5116    3.6970    3.9176 O   0  0  0  0  0  0  0  0  0  0  0  0
   19.9024    5.7075    3.9234 C   0  0  0  0  0  0  0  0  0  0  0  0
   19.2825    6.2530    5.0814 O   0  0  0  0  0  0  0  0  0  0  0  0
   20.3361    6.7858    3.1100 O   0  0  0  0  0  0  0  0  0  0  0  0
   21.1406    6.3274    2.0164 C   0  0  0  0  0  0  0  0  0  0  0  0
   17.9215    4.6366    0.6614 H   0  0  0  0  0  0  0  0  0  0  0  0
   19.1008    2.9491    3.7253 H   0  0  0  0  0  0  0  0  0  0  0  0
   18.3212    6.2143    4.9437 H   0  0  0  0  0  0  0  0  0  0  0  0
   21.7312    7.5795    1.3494 C   0  0  0  0  0  0  0  0  0  0  0  0
   22.9595    7.2574    0.6978 O   0  0  0  0  0  0  0  0  0  0  0  0
   22.7359    6.5521    0.0573 H   0  0  0  0  0  0  0  0  0  0  0  0
 14 15  1  0
 14 16  1  0
  2  3  1  0
  2  9  1  0
  2 15  1  0
  3  4  1  0
  4  5  1  0
  4  1  1  0
  1 17  1  0
 17 18  1  0
 17 25  1  0
 18 19  1  0
 18 20  1  0
 19 26  1  0
 20 21  1  0
 20 22  1  0
 21 27  1  0
 22 24  1  0
 22 23  1  0
 23 28  1  0
 24 25  1  0
 25 29  1  0
 29 30  1  0
 30 31  1  0
  5  6  1  0
  5  7  1  0
  6 11  1  0
  7  8  1  0
  7  9  1  0
  8 12  1  0
  9 10  1  0
 10 13  1  0
M  END
> <minimizedAffinity>
-4.53516

> <CNNscore>
0.4933662415

> <CNNaffinity>
3.1122457981

> <CNN_VS>
1.5354770422

> <CNNaffinity_variance>
0.8732380271

$$$$



 31 32  0  0  0  0  0  0  0  0999 V2000
   19.0278    5.8099    1.8311 O   0  0  0  0  0  0  0  0  0  0  0  0
   20.7540    4.1385    4.5083 C   0  0  0  0  0  0  0  0  0  0  0  0
   19.8409    4.3888    3.4452 O   0  0  0  0  0  0  0  0  0  0  0  0
   19.9907    5.6819    2.8844 C   0  0  0  0  0  0  0  0  0  0  0  0
   19.6853    6.7562    3.9551 C   0  0  0  0  0  0  0  0  0  0  0  0
   20.2214    8.0308    3.5477 O   0  0  0  0  0  0  0  0  0  0  0  0
   20.2554    6.4230    5.3465 C   0  0  0  0  0  0  0  0  0  0  0  0
   19.5379    7.2184    6.3123 O   0  0  0  0  0  0  0  0  0  0  0  0
   20.2276    4.9288    5.7122 C   0  0  0  0  0  0  0  0  0  0  0  0
   20.9698    4.7424    6.9143 O   0  0  0  0  0  0  0  0  0  0  0  0
   20.2198    8.5948    4.3466 H   0  0  0  0  0  0  0  0  0  0  0  0
   18.8008    6.6823    6.6518 H   0  0  0  0  0  0  0  0  0  0  0  0
   21.8270    4.3292    6.6920 H   0  0  0  0  0  0  0  0  0  0  0  0
   21.8738    2.2615    5.5861 O   0  0  0  0  0  0  0  0  0  0  0  0
   20.8136    2.6190    4.7077 C   0  0  0  0  0  0  0  0  0  0  0  0
   21.7073    1.3370    5.8469 H   0  0  0  0  0  0  0  0  0  0  0  0
   19.3768    5.1928    0.5719 C   0  0  0  0  0  0  0  0  0  0  0  0
   18.2337    4.3234   -0.0161 C   0  0  0  0  0  0  0  0  0  0  0  0
   18.2046    3.0143    0.5910 O   0  0  0  0  0  0  0  0  0  0  0  0
   18.3230    4.0830   -1.5311 C   0  0  0  0  0  0  0  0  0  0  0  0
   17.0844    3.5605   -2.0455 O   0  0  0  0  0  0  0  0  0  0  0  0
   18.7245    5.3577   -2.2839 C   0  0  0  0  0  0  0  0  0  0  0  0
   18.9637    5.0911   -3.6602 O   0  0  0  0  0  0  0  0  0  0  0  0
   19.9188    5.8812   -1.7254 O   0  0  0  0  0  0  0  0  0  0  0  0
   19.7092    6.3559   -0.3897 C   0  0  0  0  0  0  0  0  0  0  0  0
   19.1061    2.6484    0.5841 H   0  0  0  0  0  0  0  0  0  0  0  0
   16.3509    3.9184   -1.5188 H   0  0  0  0  0  0  0  0  0  0  0  0
   19.1323    4.1379   -3.7481 H   0  0  0  0  0  0  0  0  0  0  0  0
   20.9923    7.0950    0.0210 C   0  0  0  0  0  0  0  0  0  0  0  0
   21.4577    7.9089   -1.0551 O   0  0  0  0  0  0  0  0  0  0  0  0
   20.7169    8.5141   -1.2617 H   0  0  0  0  0  0  0  0  0  0  0  0
 14 15  1  0
 14 16  1  0
  2  3  1  0
  2  9  1  0
  2 15  1  0
  3  4  1  0
  4  5  1  0
  4  1  1  0
  1 17  1  0
 17 18  1  0
 17 25  1  0
 18 19  1  0
 18 20  1  0
 19 26  1  0
 20 21  1  0
 20 22  1  0
 21 27  1  0
 22 24  1  0
 22 23  1  0
 23 28  1  0
 24 25  1  0
 25 29  1  0
 29 30  1  0
 30 31  1  0
  5  6  1  0
  5  7  1  0
  6 11  1  0
  7  8  1  0
  7  9  1  0
  8 12  1  0
  9 10  1  0
 10 13  1  0
M  END
> <minimizedAffinity>
-4.73117

> <CNNscore>
0.4928663969

> <CNNaffinity>
2.9948577881

> <CNN_VS>
1.4760648012

> <CNNaffinity_variance>
0.6194578409

$$$$



 31 32  0  0  0  0  0  0  0  0999 V2000
   19.3316    5.1251   -0.4895 O   0  0  0  0  0  0  0  0  0  0  0  0
   18.2908    2.9488   -3.1580 C   0  0  0  0  0  0  0  0  0  0  0  0
   19.1105    3.5898   -2.1865 O   0  0  0  0  0  0  0  0  0  0  0  0
   18.4082    4.5591   -1.4274 C   0  0  0  0  0  0  0  0  0  0  0  0
   17.9055    5.6892   -2.3568 C   0  0  0  0  0  0  0  0  0  0  0  0
   16.8638    6.4429   -1.7049 O   0  0  0  0  0  0  0  0  0  0  0  0
   17.3556    5.1843   -3.7039 C   0  0  0  0  0  0  0  0  0  0  0  0
   17.3610    6.2977   -4.6207 O   0  0  0  0  0  0  0  0  0  0  0  0
   18.0971    3.9686   -4.2865 C   0  0  0  0  0  0  0  0  0  0  0  0
   17.3611    3.4821   -5.4055 O   0  0  0  0  0  0  0  0  0  0  0  0
   16.4252    6.9644   -2.4064 H   0  0  0  0  0  0  0  0  0  0  0  0
   18.1945    6.2680   -5.1212 H   0  0  0  0  0  0  0  0  0  0  0  0
   16.9049    2.6579   -5.1457 H   0  0  0  0  0  0  0  0  0  0  0  0
   18.2779    0.5121   -3.1323 O   0  0  0  0  0  0  0  0  0  0  0  0
   19.0030    1.6547   -3.5706 C   0  0  0  0  0  0  0  0  0  0  0  0
   18.6495   -0.2461   -3.6198 H   0  0  0  0  0  0  0  0  0  0  0  0
   18.7891    5.4805    0.8020 C   0  0  0  0  0  0  0  0  0  0  0  0
   18.7239    4.2810    1.7845 C   0  0  0  0  0  0  0  0  0  0  0  0
   17.5561    3.4679    1.5434 O   0  0  0  0  0  0  0  0  0  0  0  0
   18.6671    4.6693    3.2701 C   0  0  0  0  0  0  0  0  0  0  0  0
   18.9353    3.5330    4.1120 O   0  0  0  0  0  0  0  0  0  0  0  0
   19.6309    5.8184    3.5921 C   0  0  0  0  0  0  0  0  0  0  0  0
   19.4564    6.2804    4.9258 O   0  0  0  0  0  0  0  0  0  0  0  0
   19.3810    6.9057    2.7160 O   0  0  0  0  0  0  0  0  0  0  0  0
   19.7210    6.5780    1.3630 C   0  0  0  0  0  0  0  0  0  0  0  0
   16.7791    4.0504    1.4819 H   0  0  0  0  0  0  0  0  0  0  0  0
   19.5520    2.9407    3.6512 H   0  0  0  0  0  0  0  0  0  0  0  0
   18.5748    5.9963    5.2204 H   0  0  0  0  0  0  0  0  0  0  0  0
   19.6260    7.8829    0.5571 C   0  0  0  0  0  0  0  0  0  0  0  0
   20.0601    8.9856    1.3523 O   0  0  0  0  0  0  0  0  0  0  0  0
   20.9756    8.7673    1.6205 H   0  0  0  0  0  0  0  0  0  0  0  0
 14 15  1  0
 14 16  1  0
  2  3  1  0
  2  9  1  0
  2 15  1  0
  3  4  1  0
  4  5  1  0
  4  1  1  0
  1 17  1  0
 17 18  1  0
 17 25  1  0
 18 19  1  0
 18 20  1  0
 19 26  1  0
 20 21  1  0
 20 22  1  0
 21 27  1  0
 22 24  1  0
 22 23  1  0
 23 28  1  0
 24 25  1  0
 25 29  1  0
 29 30  1  0
 30 31  1  0
  5  6  1  0
  5  7  1  0
  6 11  1  0
  7  8  1  0
  7  9  1  0
  8 12  1  0
  9 10  1  0
 10 13  1  0
M  END
> <minimizedAffinity>
-6.40665

> <CNNscore>
0.4689141214

> <CNNaffinity>
2.6705837250

> <CNN_VS>
1.2522743940

> <CNNaffinity_variance>
0.9689262509

$$$$



 31 32  0  0  0  0  0  0  0  0999 V2000
   17.6388    4.5155   -1.1900 O   0  0  0  0  0  0  0  0  0  0  0  0
   20.4425    3.6625   -3.2762 C   0  0  0  0  0  0  0  0  0  0  0  0
   19.2950    4.3397   -2.7749 O   0  0  0  0  0  0  0  0  0  0  0  0
   18.7786    3.7477   -1.5951 C   0  0  0  0  0  0  0  0  0  0  0  0
   18.3103    2.3039   -1.8949 C   0  0  0  0  0  0  0  0  0  0  0  0
   18.1780    1.5591   -0.6677 O   0  0  0  0  0  0  0  0  0  0  0  0
   19.2603    1.5253   -2.8240 C   0  0  0  0  0  0  0  0  0  0  0  0
   18.5164    0.4225   -3.3813 O   0  0  0  0  0  0  0  0  0  0  0  0
   19.9230    2.3733   -3.9234 C   0  0  0  0  0  0  0  0  0  0  0  0
   20.9240    1.5854   -4.5622 O   0  0  0  0  0  0  0  0  0  0  0  0
   18.1255    0.6171   -0.9252 H   0  0  0  0  0  0  0  0  0  0  0  0
   18.1558    0.7085   -4.2382 H   0  0  0  0  0  0  0  0  0  0  0  0
   21.8022    1.8919   -4.2624 H   0  0  0  0  0  0  0  0  0  0  0  0
   20.9283    4.2580   -5.5887 O   0  0  0  0  0  0  0  0  0  0  0  0
   21.1559    4.6252   -4.2335 C   0  0  0  0  0  0  0  0  0  0  0  0
   21.2021    5.0247   -6.1252 H   0  0  0  0  0  0  0  0  0  0  0  0
   17.7665    5.2340    0.0573 C   0  0  0  0  0  0  0  0  0  0  0  0
   18.3951    4.3787    1.1895 C   0  0  0  0  0  0  0  0  0  0  0  0
   17.4113    3.5238    1.8094 O   0  0  0  0  0  0  0  0  0  0  0  0
   19.0280    5.1891    2.3313 C   0  0  0  0  0  0  0  0  0  0  0  0
   19.8597    4.3545    3.1582 O   0  0  0  0  0  0  0  0  0  0  0  0
   19.8249    6.3876    1.8009 C   0  0  0  0  0  0  0  0  0  0  0  0
   20.2698    7.2227    2.8627 O   0  0  0  0  0  0  0  0  0  0  0  0
   18.9995    7.1653    0.9488 O   0  0  0  0  0  0  0  0  0  0  0  0
   18.6642    6.4539   -0.2490 C   0  0  0  0  0  0  0  0  0  0  0  0
   16.6261    4.0574    2.0227 H   0  0  0  0  0  0  0  0  0  0  0  0
   20.2488    3.6560    2.6067 H   0  0  0  0  0  0  0  0  0  0  0  0
   19.7127    7.0333    3.6363 H   0  0  0  0  0  0  0  0  0  0  0  0
   17.9708    7.4611   -1.1796 C   0  0  0  0  0  0  0  0  0  0  0  0
   16.6478    7.0204   -1.4839 O   0  0  0  0  0  0  0  0  0  0  0  0
   16.2000    6.9277   -0.6187 H   0  0  0  0  0  0  0  0  0  0  0  0
 14 15  1  0
 14 16  1  0
  2  3  1  0
  2  9  1  0
  2 15  1  0
  3  4  1  0
  4  5  1  0
  4  1  1  0
  1 17  1  0
 17 18  1  0
 17 25  1  0
 18 19  1  0
 18 20  1  0
 19 26  1  0
 20 21  1  0
 20 22  1  0
 21 27  1  0
 22 24  1  0
 22 23  1  0
 23 28  1  0
 24 25  1  0
 25 29  1  0
 29 30  1  0
 30 31  1  0
  5  6  1  0
  5  7  1  0
  6 11  1  0
  7  8  1  0
  7  9  1  0
  8 12  1  0
  9 10  1  0
 10 13  1  0
M  END
> <minimizedAffinity>
-6.33548

> <CNNscore>
0.4345805645

> <CNNaffinity>
3.1815555096

> <CNN_VS>
1.3826421499

> <CNNaffinity_variance>
0.5805429816

$$$$



 31 32  0  0  0  0  0  0  0  0999 V2000
   20.1015    5.0912   -0.4596 O   0  0  0  0  0  0  0  0  0  0  0  0
   19.9473    6.8465    2.6766 C   0  0  0  0  0  0  0  0  0  0  0  0
   20.4629    6.2659    1.4834 O   0  0  0  0  0  0  0  0  0  0  0  0
   19.4643    5.6270    0.7064 C   0  0  0  0  0  0  0  0  0  0  0  0
   18.8486    4.4542    1.5060 C   0  0  0  0  0  0  0  0  0  0  0  0
   17.5857    4.0674    0.9283 O   0  0  0  0  0  0  0  0  0  0  0  0
   18.6129    4.7755    2.9936 C   0  0  0  0  0  0  0  0  0  0  0  0
   18.4895    3.5214    3.6952 O   0  0  0  0  0  0  0  0  0  0  0  0
   19.6813    5.6787    3.6339 C   0  0  0  0  0  0  0  0  0  0  0  0
   19.2313    6.0649    4.9297 O   0  0  0  0  0  0  0  0  0  0  0  0
   17.1388    3.5120    1.5978 H   0  0  0  0  0  0  0  0  0  0  0  0
   19.3675    3.2850    4.0405 H   0  0  0  0  0  0  0  0  0  0  0  0
   18.9425    6.9979    4.8955 H   0  0  0  0  0  0  0  0  0  0  0  0
   20.4248    8.7177    4.1628 O   0  0  0  0  0  0  0  0  0  0  0  0
   20.9823    7.8650    3.1702 C   0  0  0  0  0  0  0  0  0  0  0  0
   21.1793    9.1657    4.5877 H   0  0  0  0  0  0  0  0  0  0  0  0
   19.5863    5.5450   -1.7313 C   0  0  0  0  0  0  0  0  0  0  0  0
   18.3818    4.7052   -2.2334 C   0  0  0  0  0  0  0  0  0  0  0  0
   18.8207    3.4876   -2.8720 O   0  0  0  0  0  0  0  0  0  0  0  0
   17.4839    5.4173   -3.2570 C   0  0  0  0  0  0  0  0  0  0  0  0
   16.2359    4.7199   -3.4234 O   0  0  0  0  0  0  0  0  0  0  0  0
   17.2362    6.8812   -2.8712 C   0  0  0  0  0  0  0  0  0  0  0  0
   16.5434    7.5764   -3.9005 O   0  0  0  0  0  0  0  0  0  0  0  0
   18.4789    7.5327   -2.6628 O   0  0  0  0  0  0  0  0  0  0  0  0
   19.1571    7.0132   -1.5123 C   0  0  0  0  0  0  0  0  0  0  0  0
   19.5222    3.7065   -3.5098 H   0  0  0  0  0  0  0  0  0  0  0  0
   15.9986    4.2975   -2.5815 H   0  0  0  0  0  0  0  0  0  0  0  0
   16.6653    7.0755   -4.7244 H   0  0  0  0  0  0  0  0  0  0  0  0
   20.3606    7.9342   -1.2578 C   0  0  0  0  0  0  0  0  0  0  0  0
   20.0552    8.8692   -0.2237 O   0  0  0  0  0  0  0  0  0  0  0  0
   19.8175    8.3261    0.5550 H   0  0  0  0  0  0  0  0  0  0  0  0
 14 15  1  0
 14 16  1  0
  2  3  1  0
  2  9  1  0
  2 15  1  0
  3  4  1  0
  4  5  1  0
  4  1  1  0
  1 17  1  0
 17 18  1  0
 17 25  1  0
 18 19  1  0
 18 20  1  0
 19 26  1  0
 20 21  1  0
 20 22  1  0
 21 27  1  0
 22 24  1  0
 22 23  1  0
 23 28  1  0
 24 25  1  0
 25 29  1  0
 29 30  1  0
 30 31  1  0
  5  6  1  0
  5  7  1  0
  6 11  1  0
  7  8  1  0
  7  9  1  0
  8 12  1  0
  9 10  1  0
 10 13  1  0
M  END
> <minimizedAffinity>
-5.04100

> <CNNscore>
0.4174306989

> <CNNaffinity>
2.6720352173

> <CNN_VS>
1.1153895855

> <CNNaffinity_variance>
0.8145906925

$$$$
