


 31 32  0  0  0  0  0  0  0  0999 V2000
    0.4507   -2.7368  -16.2834 O   0  0  0  0  0  0  0  0  0  0  0  0
    2.9463   -4.6321  -18.0498 C   0  0  0  0  0  0  0  0  0  0  0  0
    2.3463   -3.7130  -17.1433 O   0  0  0  0  0  0  0  0  0  0  0  0
    0.9325   -3.6879  -17.2405 C   0  0  0  0  0  0  0  0  0  0  0  0
    0.5125   -3.2127  -18.6516 C   0  0  0  0  0  0  0  0  0  0  0  0
   -0.8604   -3.5697  -18.9085 O   0  0  0  0  0  0  0  0  0  0  0  0
    1.3762   -3.7979  -19.7845 C   0  0  0  0  0  0  0  0  0  0  0  0
    1.2024   -2.9565  -20.9429 O   0  0  0  0  0  0  0  0  0  0  0  0
    2.8635   -3.9760  -19.4332 C   0  0  0  0  0  0  0  0  0  0  0  0
    3.4910   -4.7142  -20.4781 O   0  0  0  0  0  0  0  0  0  0  0  0
   -0.9911   -3.4728  -19.8728 H   0  0  0  0  0  0  0  0  0  0  0  0
    1.9171   -2.2968  -20.9426 H   0  0  0  0  0  0  0  0  0  0  0  0
    3.6522   -5.6256  -20.1643 H   0  0  0  0  0  0  0  0  0  0  0  0
    4.7288   -3.9892  -16.5176 O   0  0  0  0  0  0  0  0  0  0  0  0
    4.3693   -4.9033  -17.5464 C   0  0  0  0  0  0  0  0  0  0  0  0
    5.5253   -4.3595  -16.0944 H   0  0  0  0  0  0  0  0  0  0  0  0
   -0.8517   -3.0069  -15.7183 C   0  0  0  0  0  0  0  0  0  0  0  0
   -0.7966   -3.9555  -14.4913 C   0  0  0  0  0  0  0  0  0  0  0  0
   -0.7127   -5.3373  -14.8996 O   0  0  0  0  0  0  0  0  0  0  0  0
   -2.0115   -3.8663  -13.5548 C   0  0  0  0  0  0  0  0  0  0  0  0
   -1.7447   -4.5163  -12.2986 O   0  0  0  0  0  0  0  0  0  0  0  0
   -2.4461   -2.4128  -13.3281 C   0  0  0  0  0  0  0  0  0  0  0  0
   -3.6637   -2.3459  -12.5963 O   0  0  0  0  0  0  0  0  0  0  0  0
   -2.6529   -1.7796  -14.5806 O   0  0  0  0  0  0  0  0  0  0  0  0
   -1.4243   -1.6329  -15.3034 C   0  0  0  0  0  0  0  0  0  0  0  0
   -1.3930   -5.5037  -15.5751 H   0  0  0  0  0  0  0  0  0  0  0  0
   -0.7992   -4.4269  -12.0945 H   0  0  0  0  0  0  0  0  0  0  0  0
   -4.1041   -3.2080  -12.6826 H   0  0  0  0  0  0  0  0  0  0  0  0
   -1.7325   -0.7455  -16.5195 C   0  0  0  0  0  0  0  0  0  0  0  0
   -3.0535   -0.2145  -16.4195 O   0  0  0  0  0  0  0  0  0  0  0  0
   -3.0722    0.2763  -15.5730 H   0  0  0  0  0  0  0  0  0  0  0  0
 14 15  1  0
 14 16  1  0
  2  3  1  0
  2  9  1  0
  2 15  1  0
  3  4  1  0
  4  5  1  0
  4  1  1  0
  1 17  1  0
 17 18  1  0
 17 25  1  0
 18 19  1  0
 18 20  1  0
 19 26  1  0
 20 21  1  0
 20 22  1  0
 21 27  1  0
 22 24  1  0
 22 23  1  0
 23 28  1  0
 24 25  1  0
 25 29  1  0
 29 30  1  0
 30 31  1  0
  5  6  1  0
  5  7  1  0
  6 11  1  0
  7  8  1  0
  7  9  1  0
  8 12  1  0
  9 10  1  0
 10 13  1  0
M  END
> <minimizedAffinity>
-4.46670

> <CNNscore>
0.9479596019

> <CNNaffinity>
3.1023788452

> <CNN_VS>
2.9409298897

> <CNNaffinity_variance>
0.5292956233

$$$$



 31 32  0  0  0  0  0  0  0  0999 V2000
   -1.0671   -1.8546  -17.0802 O   0  0  0  0  0  0  0  0  0  0  0  0
   -0.5720    1.6338  -17.8058 C   0  0  0  0  0  0  0  0  0  0  0  0
   -1.1578    0.4300  -17.3218 O   0  0  0  0  0  0  0  0  0  0  0  0
   -0.3809   -0.7178  -17.6183 C   0  0  0  0  0  0  0  0  0  0  0  0
   -0.2732   -0.8961  -19.1514 C   0  0  0  0  0  0  0  0  0  0  0  0
    0.8217   -1.7767  -19.4739 O   0  0  0  0  0  0  0  0  0  0  0  0
   -0.0623    0.4247  -19.9149 C   0  0  0  0  0  0  0  0  0  0  0  0
   -0.4352    0.1968  -21.2894 O   0  0  0  0  0  0  0  0  0  0  0  0
   -0.8025    1.6360  -19.3217 C   0  0  0  0  0  0  0  0  0  0  0  0
   -0.3533    2.8128  -19.9881 O   0  0  0  0  0  0  0  0  0  0  0  0
    0.9945   -1.6578  -20.4291 H   0  0  0  0  0  0  0  0  0  0  0  0
   -1.3658    0.4599  -21.3936 H   0  0  0  0  0  0  0  0  0  0  0  0
    0.2407    3.3048  -19.3880 H   0  0  0  0  0  0  0  0  0  0  0  0
   -1.7485    2.3596  -15.7989 O   0  0  0  0  0  0  0  0  0  0  0  0
   -1.2294    2.7949  -17.0497 C   0  0  0  0  0  0  0  0  0  0  0  0
   -1.9310    3.1688  -15.2866 H   0  0  0  0  0  0  0  0  0  0  0  0
   -0.8854   -2.0972  -15.6672 C   0  0  0  0  0  0  0  0  0  0  0  0
   -2.1151   -1.6822  -14.8164 C   0  0  0  0  0  0  0  0  0  0  0  0
   -2.1141   -0.2638  -14.5494 O   0  0  0  0  0  0  0  0  0  0  0  0
   -2.2091   -2.3686  -13.4449 C   0  0  0  0  0  0  0  0  0  0  0  0
   -3.5144   -2.1893  -12.8654 O   0  0  0  0  0  0  0  0  0  0  0  0
   -1.8583   -3.8593  -13.5326 C   0  0  0  0  0  0  0  0  0  0  0  0
   -1.7882   -4.4503  -12.2409 O   0  0  0  0  0  0  0  0  0  0  0  0
   -0.5918   -4.0120  -14.1532 O   0  0  0  0  0  0  0  0  0  0  0  0
   -0.6308   -3.6151  -15.5295 C   0  0  0  0  0  0  0  0  0  0  0  0
   -1.2311   -0.0082  -14.2305 H   0  0  0  0  0  0  0  0  0  0  0  0
   -4.1706   -2.1442  -13.5801 H   0  0  0  0  0  0  0  0  0  0  0  0
   -1.6604   -3.7327  -11.5980 H   0  0  0  0  0  0  0  0  0  0  0  0
    0.7134   -4.0327  -16.1461 C   0  0  0  0  0  0  0  0  0  0  0  0
    1.4263   -4.8798  -15.2454 O   0  0  0  0  0  0  0  0  0  0  0  0
    0.8309   -5.6378  -15.0762 H   0  0  0  0  0  0  0  0  0  0  0  0
 14 15  1  0
 14 16  1  0
  2  3  1  0
  2  9  1  0
  2 15  1  0
  3  4  1  0
  4  5  1  0
  4  1  1  0
  1 17  1  0
 17 18  1  0
 17 25  1  0
 18 19  1  0
 18 20  1  0
 19 26  1  0
 20 21  1  0
 20 22  1  0
 21 27  1  0
 22 24  1  0
 22 23  1  0
 23 28  1  0
 24 25  1  0
 25 29  1  0
 29 30  1  0
 30 31  1  0
  5  6  1  0
  5  7  1  0
  6 11  1  0
  7  8  1  0
  7  9  1  0
  8 12  1  0
  9 10  1  0
 10 13  1  0
M  END
> <minimizedAffinity>
-4.80057

> <CNNscore>
0.9263539910

> <CNNaffinity>
3.1937868595

> <CNN_VS>
2.9585771561

> <CNNaffinity_variance>
0.4655999243

$$$$



 31 32  0  0  0  0  0  0  0  0999 V2000
   -1.3678   -0.6682  -15.5997 O   0  0  0  0  0  0  0  0  0  0  0  0
   -4.3771   -2.0130  -14.1589 C   0  0  0  0  0  0  0  0  0  0  0  0
   -3.3955   -1.0799  -14.5973 O   0  0  0  0  0  0  0  0  0  0  0  0
   -2.2743   -1.7033  -15.2000 C   0  0  0  0  0  0  0  0  0  0  0  0
   -1.5575   -2.6047  -14.1669 C   0  0  0  0  0  0  0  0  0  0  0  0
   -0.6967   -3.5450  -14.8399 O   0  0  0  0  0  0  0  0  0  0  0  0
   -2.5204   -3.4011  -13.2667 C   0  0  0  0  0  0  0  0  0  0  0  0
   -1.7827   -3.8129  -12.0978 O   0  0  0  0  0  0  0  0  0  0  0  0
   -3.8112   -2.6550  -12.8866 C   0  0  0  0  0  0  0  0  0  0  0  0
   -4.6920   -3.5717  -12.2428 O   0  0  0  0  0  0  0  0  0  0  0  0
   -0.4709   -4.2291  -14.1785 H   0  0  0  0  0  0  0  0  0  0  0  0
   -1.9257   -3.1460  -11.4044 H   0  0  0  0  0  0  0  0  0  0  0  0
   -5.4081   -3.8071  -12.8648 H   0  0  0  0  0  0  0  0  0  0  0  0
   -5.4313    0.0929  -13.5326 O   0  0  0  0  0  0  0  0  0  0  0  0
   -5.6862   -1.2379  -13.9652 C   0  0  0  0  0  0  0  0  0  0  0  0
   -6.2658    0.5813  -13.6573 H   0  0  0  0  0  0  0  0  0  0  0  0
   -1.9208    0.3746  -16.4335 C   0  0  0  0  0  0  0  0  0  0  0  0
   -2.1130    1.7174  -15.6796 C   0  0  0  0  0  0  0  0  0  0  0  0
   -3.3340    1.7171  -14.9100 O   0  0  0  0  0  0  0  0  0  0  0  0
   -2.1855    2.9576  -16.5838 C   0  0  0  0  0  0  0  0  0  0  0  0
   -2.0361    4.1662  -15.8165 O   0  0  0  0  0  0  0  0  0  0  0  0
   -1.1434    2.9004  -17.7079 C   0  0  0  0  0  0  0  0  0  0  0  0
   -1.3226    3.9657  -18.6330 O   0  0  0  0  0  0  0  0  0  0  0  0
   -1.2775    1.6786  -18.4161 O   0  0  0  0  0  0  0  0  0  0  0  0
   -0.9221    0.5566  -17.5986 C   0  0  0  0  0  0  0  0  0  0  0  0
   -4.0594    1.4047  -15.4782 H   0  0  0  0  0  0  0  0  0  0  0  0
   -1.4545    3.9865  -15.0595 H   0  0  0  0  0  0  0  0  0  0  0  0
   -2.2330    4.2906  -18.5316 H   0  0  0  0  0  0  0  0  0  0  0  0
   -0.8867   -0.6691  -18.5247 C   0  0  0  0  0  0  0  0  0  0  0  0
   -1.3921   -0.3263  -19.8147 O   0  0  0  0  0  0  0  0  0  0  0  0
   -0.8254    0.4071  -20.1287 H   0  0  0  0  0  0  0  0  0  0  0  0
 14 15  1  0
 14 16  1  0
  2  3  1  0
  2  9  1  0
  2 15  1  0
  3  4  1  0
  4  5  1  0
  4  1  1  0
  1 17  1  0
 17 18  1  0
 17 25  1  0
 18 19  1  0
 18 20  1  0
 19 26  1  0
 20 21  1  0
 20 22  1  0
 21 27  1  0
 22 24  1  0
 22 23  1  0
 23 28  1  0
 24 25  1  0
 25 29  1  0
 29 30  1  0
 30 31  1  0
  5  6  1  0
  5  7  1  0
  6 11  1  0
  7  8  1  0
  7  9  1  0
  8 12  1  0
  9 10  1  0
 10 13  1  0
M  END
> <minimizedAffinity>
-4.95504

> <CNNscore>
0.8648046255

> <CNNaffinity>
2.9519834518

> <CNN_VS>
2.5528888702

> <CNNaffinity_variance>
0.4659479558

$$$$



 31 32  0  0  0  0  0  0  0  0999 V2000
   -3.8014   -1.0309  -16.2751 O   0  0  0  0  0  0  0  0  0  0  0  0
   -1.5061   -2.9916  -14.3186 C   0  0  0  0  0  0  0  0  0  0  0  0
   -2.2605   -2.5110  -15.4261 O   0  0  0  0  0  0  0  0  0  0  0  0
   -3.1048   -1.4243  -15.0865 C   0  0  0  0  0  0  0  0  0  0  0  0
   -4.1490   -1.8791  -14.0394 C   0  0  0  0  0  0  0  0  0  0  0  0
   -4.7283   -0.7329  -13.3845 O   0  0  0  0  0  0  0  0  0  0  0  0
   -3.5730   -2.8069  -12.9534 C   0  0  0  0  0  0  0  0  0  0  0  0
   -4.6792   -3.5065  -12.3475 O   0  0  0  0  0  0  0  0  0  0  0  0
   -2.4903   -3.7818  -13.4480 C   0  0  0  0  0  0  0  0  0  0  0  0
   -1.9024   -4.4184  -12.3168 O   0  0  0  0  0  0  0  0  0  0  0  0
   -5.1798   -1.0743  -12.5869 H   0  0  0  0  0  0  0  0  0  0  0  0
   -4.7820   -4.3574  -12.8074 H   0  0  0  0  0  0  0  0  0  0  0  0
   -1.0159   -4.0351  -12.1676 H   0  0  0  0  0  0  0  0  0  0  0  0
    0.2113   -3.1854  -16.0365 O   0  0  0  0  0  0  0  0  0  0  0  0
   -0.3404   -3.8118  -14.8847 C   0  0  0  0  0  0  0  0  0  0  0  0
    1.0691   -3.6210  -16.1952 H   0  0  0  0  0  0  0  0  0  0  0  0
   -3.5081    0.2926  -16.7758 C   0  0  0  0  0  0  0  0  0  0  0  0
   -3.0944    1.2869  -15.6584 C   0  0  0  0  0  0  0  0  0  0  0  0
   -4.2495    1.8247  -14.9803 O   0  0  0  0  0  0  0  0  0  0  0  0
   -2.2885    2.5015  -16.1448 C   0  0  0  0  0  0  0  0  0  0  0  0
   -1.6730    3.1893  -15.0403 O   0  0  0  0  0  0  0  0  0  0  0  0
   -1.2351    2.1019  -17.1857 C   0  0  0  0  0  0  0  0  0  0  0  0
   -0.6065    3.2462  -17.7498 O   0  0  0  0  0  0  0  0  0  0  0  0
   -1.8579    1.3816  -18.2373 O   0  0  0  0  0  0  0  0  0  0  0  0
   -2.3514    0.1147  -17.7848 C   0  0  0  0  0  0  0  0  0  0  0  0
   -4.8885    2.1285  -15.6482 H   0  0  0  0  0  0  0  0  0  0  0  0
   -1.4581    2.5418  -14.3489 H   0  0  0  0  0  0  0  0  0  0  0  0
   -1.1912    4.0069  -17.5949 H   0  0  0  0  0  0  0  0  0  0  0  0
   -2.7924   -0.6585  -19.0374 C   0  0  0  0  0  0  0  0  0  0  0  0
   -4.2077   -0.8425  -19.0296 O   0  0  0  0  0  0  0  0  0  0  0  0
   -4.5861    0.0588  -18.9833 H   0  0  0  0  0  0  0  0  0  0  0  0
 14 15  1  0
 14 16  1  0
  2  3  1  0
  2  9  1  0
  2 15  1  0
  3  4  1  0
  4  5  1  0
  4  1  1  0
  1 17  1  0
 17 18  1  0
 17 25  1  0
 18 19  1  0
 18 20  1  0
 19 26  1  0
 20 21  1  0
 20 22  1  0
 21 27  1  0
 22 24  1  0
 22 23  1  0
 23 28  1  0
 24 25  1  0
 25 29  1  0
 29 30  1  0
 30 31  1  0
  5  6  1  0
  5  7  1  0
  6 11  1  0
  7  8  1  0
  7  9  1  0
  8 12  1  0
  9 10  1  0
 10 13  1  0
M  END
> <minimizedAffinity>
-4.84227

> <CNNscore>
0.8006296754

> <CNNaffinity>
2.8375027180

> <CNN_VS>
2.2717888355

> <CNNaffinity_variance>
0.6053388119

$$$$



 31 32  0  0  0  0  0  0  0  0999 V2000
   -0.5818   -3.6474  -14.7539 O   0  0  0  0  0  0  0  0  0  0  0  0
   -4.0224   -3.2568  -15.7289 C   0  0  0  0  0  0  0  0  0  0  0  0
   -2.6040   -3.1352  -15.7205 O   0  0  0  0  0  0  0  0  0  0  0  0
   -1.9976   -3.8417  -14.6517 C   0  0  0  0  0  0  0  0  0  0  0  0
   -2.4722   -3.2563  -13.3005 C   0  0  0  0  0  0  0  0  0  0  0  0
   -2.2131   -4.1919  -12.2348 O   0  0  0  0  0  0  0  0  0  0  0  0
   -3.9712   -2.9042  -13.2706 C   0  0  0  0  0  0  0  0  0  0  0  0
   -4.1787   -1.9774  -12.1852 O   0  0  0  0  0  0  0  0  0  0  0  0
   -4.5302   -2.3574  -14.5957 C   0  0  0  0  0  0  0  0  0  0  0  0
   -5.9492   -2.2792  -14.4913 O   0  0  0  0  0  0  0  0  0  0  0  0
   -2.7420   -3.8875  -11.4706 H   0  0  0  0  0  0  0  0  0  0  0  0
   -4.1284   -1.0765  -12.5484 H   0  0  0  0  0  0  0  0  0  0  0  0
   -6.3419   -3.0067  -15.0124 H   0  0  0  0  0  0  0  0  0  0  0  0
   -3.4566   -2.2564  -17.8777 O   0  0  0  0  0  0  0  0  0  0  0  0
   -4.5036   -2.8646  -17.1313 C   0  0  0  0  0  0  0  0  0  0  0  0
   -3.7549   -2.2521  -18.8060 H   0  0  0  0  0  0  0  0  0  0  0  0
    0.0467   -4.1650  -15.9478 C   0  0  0  0  0  0  0  0  0  0  0  0
    0.6015   -3.0505  -16.8743 C   0  0  0  0  0  0  0  0  0  0  0  0
   -0.4408   -2.4843  -17.6965 O   0  0  0  0  0  0  0  0  0  0  0  0
    1.7007   -3.5095  -17.8449 C   0  0  0  0  0  0  0  0  0  0  0  0
    2.3807   -2.3820  -18.4264 O   0  0  0  0  0  0  0  0  0  0  0  0
    2.7022   -4.4498  -17.1624 C   0  0  0  0  0  0  0  0  0  0  0  0
    3.6186   -4.9982  -18.1018 O   0  0  0  0  0  0  0  0  0  0  0  0
    2.0039   -5.5242  -16.5537 O   0  0  0  0  0  0  0  0  0  0  0  0
    1.1979   -5.0723  -15.4585 C   0  0  0  0  0  0  0  0  0  0  0  0
   -0.9427   -3.2104  -18.1058 H   0  0  0  0  0  0  0  0  0  0  0  0
    2.3894   -1.6553  -17.7819 H   0  0  0  0  0  0  0  0  0  0  0  0
    3.2181   -4.9147  -18.9834 H   0  0  0  0  0  0  0  0  0  0  0  0
    0.6776   -6.3308  -14.7465 C   0  0  0  0  0  0  0  0  0  0  0  0
    0.2993   -7.3181  -15.7052 O   0  0  0  0  0  0  0  0  0  0  0  0
    1.1036   -7.4844  -16.2373 H   0  0  0  0  0  0  0  0  0  0  0  0
 14 15  1  0
 14 16  1  0
  2  3  1  0
  2  9  1  0
  2 15  1  0
  3  4  1  0
  4  5  1  0
  4  1  1  0
  1 17  1  0
 17 18  1  0
 17 25  1  0
 18 19  1  0
 18 20  1  0
 19 26  1  0
 20 21  1  0
 20 22  1  0
 21 27  1  0
 22 24  1  0
 22 23  1  0
 23 28  1  0
 24 25  1  0
 25 29  1  0
 29 30  1  0
 30 31  1  0
  5  6  1  0
  5  7  1  0
  6 11  1  0
  7  8  1  0
  7  9  1  0
  8 12  1  0
  9 10  1  0
 10 13  1  0
M  END
> <minimizedAffinity>
-4.71030

> <CNNscore>
0.7754829526

> <CNNaffinity>
3.3565938473

> <CNN_VS>
2.6029813290

> <CNNaffinity_variance>
0.6046909690

$$$$



 31 32  0  0  0  0  0  0  0  0999 V2000
   -0.8373   -1.4932  -16.0870 O   0  0  0  0  0  0  0  0  0  0  0  0
    1.5705   -3.2553  -18.0965 C   0  0  0  0  0  0  0  0  0  0  0  0
    0.8867   -2.7391  -16.9597 O   0  0  0  0  0  0  0  0  0  0  0  0
   -0.2362   -1.9466  -17.3060 C   0  0  0  0  0  0  0  0  0  0  0  0
    0.2245   -0.7081  -18.1107 C   0  0  0  0  0  0  0  0  0  0  0  0
   -0.8923   -0.1287  -18.8144 O   0  0  0  0  0  0  0  0  0  0  0  0
    1.3285   -1.0142  -19.1400 C   0  0  0  0  0  0  0  0  0  0  0  0
    1.9728    0.2331  -19.4705 O   0  0  0  0  0  0  0  0  0  0  0  0
    2.3481   -2.0762  -18.6931 C   0  0  0  0  0  0  0  0  0  0  0  0
    3.1712   -2.4115  -19.8071 O   0  0  0  0  0  0  0  0  0  0  0  0
   -0.5100    0.4764  -19.4808 H   0  0  0  0  0  0  0  0  0  0  0  0
    2.7485    0.3308  -18.8918 H   0  0  0  0  0  0  0  0  0  0  0  0
    2.9040   -3.2905  -20.1402 H   0  0  0  0  0  0  0  0  0  0  0  0
    2.9876   -4.1537  -16.3292 O   0  0  0  0  0  0  0  0  0  0  0  0
    2.4379   -4.4241  -17.6130 C   0  0  0  0  0  0  0  0  0  0  0  0
    3.3188   -5.0068  -15.9929 H   0  0  0  0  0  0  0  0  0  0  0  0
   -1.8368   -2.3623  -15.5090 C   0  0  0  0  0  0  0  0  0  0  0  0
   -1.2845   -3.2396  -14.3541 C   0  0  0  0  0  0  0  0  0  0  0  0
   -0.5988   -4.4040  -14.8613 O   0  0  0  0  0  0  0  0  0  0  0  0
   -2.3507   -3.7689  -13.3826 C   0  0  0  0  0  0  0  0  0  0  0  0
   -1.7460   -4.2855  -12.1829 O   0  0  0  0  0  0  0  0  0  0  0  0
   -3.3904   -2.6937  -13.0423 C   0  0  0  0  0  0  0  0  0  0  0  0
   -4.4602   -3.2336  -12.2763 O   0  0  0  0  0  0  0  0  0  0  0  0
   -3.9340   -2.1644  -14.2410 O   0  0  0  0  0  0  0  0  0  0  0  0
   -2.9519   -1.4308  -14.9831 C   0  0  0  0  0  0  0  0  0  0  0  0
   -1.1633   -4.8308  -15.5291 H   0  0  0  0  0  0  0  0  0  0  0  0
   -0.9372   -3.7805  -11.9975 H   0  0  0  0  0  0  0  0  0  0  0  0
   -4.4599   -4.1960  -12.4120 H   0  0  0  0  0  0  0  0  0  0  0  0
   -3.7001   -0.7250  -16.1249 C   0  0  0  0  0  0  0  0  0  0  0  0
   -5.0956   -0.6598  -15.8330 O   0  0  0  0  0  0  0  0  0  0  0  0
   -5.1602   -0.1829  -14.9808 H   0  0  0  0  0  0  0  0  0  0  0  0
 14 15  1  0
 14 16  1  0
  2  3  1  0
  2  9  1  0
  2 15  1  0
  3  4  1  0
  4  5  1  0
  4  1  1  0
  1 17  1  0
 17 18  1  0
 17 25  1  0
 18 19  1  0
 18 20  1  0
 19 26  1  0
 20 21  1  0
 20 22  1  0
 21 27  1  0
 22 24  1  0
 22 23  1  0
 23 28  1  0
 24 25  1  0
 25 29  1  0
 29 30  1  0
 30 31  1  0
  5  6  1  0
  5  7  1  0
  6 11  1  0
  7  8  1  0
  7  9  1  0
  8 12  1  0
  9 10  1  0
 10 13  1  0
M  END
> <minimizedAffinity>
-4.54707

> <CNNscore>
0.7708183527

> <CNNaffinity>
2.8405911922

> <CNN_VS>
2.1895797253

> <CNNaffinity_variance>
0.5096088052

$$$$



 31 32  0  0  0  0  0  0  0  0999 V2000
    1.2923   -4.3432  -15.6853 O   0  0  0  0  0  0  0  0  0  0  0  0
   -1.6223   -2.2643  -15.3333 C   0  0  0  0  0  0  0  0  0  0  0  0
   -0.2655   -2.6628  -15.4970 O   0  0  0  0  0  0  0  0  0  0  0  0
   -0.1036   -4.0709  -15.5117 C   0  0  0  0  0  0  0  0  0  0  0  0
   -0.5491   -4.6639  -14.1539 C   0  0  0  0  0  0  0  0  0  0  0  0
   -0.7870   -6.0798  -14.2838 O   0  0  0  0  0  0  0  0  0  0  0  0
   -1.8258   -4.0171  -13.5850 C   0  0  0  0  0  0  0  0  0  0  0  0
   -1.8674   -4.3061  -12.1726 O   0  0  0  0  0  0  0  0  0  0  0  0
   -1.9592   -2.5087  -13.8576 C   0  0  0  0  0  0  0  0  0  0  0  0
   -3.2659   -2.0919  -13.4707 O   0  0  0  0  0  0  0  0  0  0  0  0
   -1.2899   -6.3455  -13.4882 H   0  0  0  0  0  0  0  0  0  0  0  0
   -1.4600   -3.5582  -11.7028 H   0  0  0  0  0  0  0  0  0  0  0  0
   -3.7989   -1.9451  -14.2766 H   0  0  0  0  0  0  0  0  0  0  0  0
   -2.1725    0.0303  -14.7245 O   0  0  0  0  0  0  0  0  0  0  0  0
   -1.7244   -0.8028  -15.7868 C   0  0  0  0  0  0  0  0  0  0  0  0
   -1.9899    0.9460  -15.0050 H   0  0  0  0  0  0  0  0  0  0  0  0
    1.6610   -5.0209  -16.9073 C   0  0  0  0  0  0  0  0  0  0  0  0
    0.5066   -5.8697  -17.5033 C   0  0  0  0  0  0  0  0  0  0  0  0
    0.4066   -7.1525  -16.8494 O   0  0  0  0  0  0  0  0  0  0  0  0
    0.6392   -6.1715  -19.0041 C   0  0  0  0  0  0  0  0  0  0  0  0
   -0.5999   -6.6676  -19.5431 O   0  0  0  0  0  0  0  0  0  0  0  0
    1.1148   -4.9424  -19.7889 C   0  0  0  0  0  0  0  0  0  0  0  0
    1.3913   -5.2706  -21.1449 O   0  0  0  0  0  0  0  0  0  0  0  0
    2.3082   -4.4420  -19.2076 O   0  0  0  0  0  0  0  0  0  0  0  0
    2.0706   -3.9088  -17.8989 C   0  0  0  0  0  0  0  0  0  0  0  0
    1.2932   -7.5513  -16.8101 H   0  0  0  0  0  0  0  0  0  0  0  0
   -1.3370   -6.2628  -19.0569 H   0  0  0  0  0  0  0  0  0  0  0  0
    1.5264   -6.2320  -21.1910 H   0  0  0  0  0  0  0  0  0  0  0  0
    3.3659   -3.2020  -17.4700 C   0  0  0  0  0  0  0  0  0  0  0  0
    3.8893   -3.8077  -16.2883 O   0  0  0  0  0  0  0  0  0  0  0  0
    4.0251   -4.7492  -16.5180 H   0  0  0  0  0  0  0  0  0  0  0  0
 14 15  1  0
 14 16  1  0
  2  3  1  0
  2  9  1  0
  2 15  1  0
  3  4  1  0
  4  5  1  0
  4  1  1  0
  1 17  1  0
 17 18  1  0
 17 25  1  0
 18 19  1  0
 18 20  1  0
 19 26  1  0
 20 21  1  0
 20 22  1  0
 21 27  1  0
 22 24  1  0
 22 23  1  0
 23 28  1  0
 24 25  1  0
 25 29  1  0
 29 30  1  0
 30 31  1  0
  5  6  1  0
  5  7  1  0
  6 11  1  0
  7  8  1  0
  7  9  1  0
  8 12  1  0
  9 10  1  0
 10 13  1  0
M  END
> <minimizedAffinity>
-4.91463

> <CNNscore>
0.7335487008

> <CNNaffinity>
2.9862453938

> <CNN_VS>
2.1905565262

> <CNNaffinity_variance>
0.6856565475

$$$$



 31 32  0  0  0  0  0  0  0  0999 V2000
   -3.5561   -2.9090  -14.1683 O   0  0  0  0  0  0  0  0  0  0  0  0
   -0.2913   -2.8316  -15.6767 C   0  0  0  0  0  0  0  0  0  0  0  0
   -1.7054   -2.7699  -15.5253 O   0  0  0  0  0  0  0  0  0  0  0  0
   -2.1266   -3.0014  -14.1918 C   0  0  0  0  0  0  0  0  0  0  0  0
   -1.7248   -4.4305  -13.7560 C   0  0  0  0  0  0  0  0  0  0  0  0
   -1.7615   -4.5409  -12.3190 O   0  0  0  0  0  0  0  0  0  0  0  0
   -0.3208   -4.8504  -14.2297 C   0  0  0  0  0  0  0  0  0  0  0  0
   -0.2558   -6.2902  -14.1746 O   0  0  0  0  0  0  0  0  0  0  0  0
    0.0752   -4.3193  -15.6183 C   0  0  0  0  0  0  0  0  0  0  0  0
    1.4559   -4.5989  -15.8338 O   0  0  0  0  0  0  0  0  0  0  0  0
   -1.2736   -5.3587  -12.0962 H   0  0  0  0  0  0  0  0  0  0  0  0
   -0.4907   -6.6333  -15.0539 H   0  0  0  0  0  0  0  0  0  0  0  0
    1.9617   -3.7679  -15.7407 H   0  0  0  0  0  0  0  0  0  0  0  0
   -0.7247   -0.9542  -17.1686 O   0  0  0  0  0  0  0  0  0  0  0  0
    0.0554   -2.1311  -16.9962 C   0  0  0  0  0  0  0  0  0  0  0  0
   -0.2969   -0.4500  -17.8851 H   0  0  0  0  0  0  0  0  0  0  0  0
   -4.1050   -1.6538  -13.7082 C   0  0  0  0  0  0  0  0  0  0  0  0
   -4.1767   -0.5769  -14.8232 C   0  0  0  0  0  0  0  0  0  0  0  0
   -2.9018    0.0744  -15.0067 O   0  0  0  0  0  0  0  0  0  0  0  0
   -5.1910    0.5483  -14.5659 C   0  0  0  0  0  0  0  0  0  0  0  0
   -5.4327    1.3101  -15.7630 O   0  0  0  0  0  0  0  0  0  0  0  0
   -6.5080    0.0043  -13.9980 C   0  0  0  0  0  0  0  0  0  0  0  0
   -7.3786    1.0601  -13.6106 O   0  0  0  0  0  0  0  0  0  0  0  0
   -6.2387   -0.7844  -12.8500 O   0  0  0  0  0  0  0  0  0  0  0  0
   -5.5241   -1.9790  -13.1902 C   0  0  0  0  0  0  0  0  0  0  0  0
   -2.5610    0.3414  -14.1354 H   0  0  0  0  0  0  0  0  0  0  0  0
   -5.3432    0.7226  -16.5313 H   0  0  0  0  0  0  0  0  0  0  0  0
   -6.8358    1.8576  -13.4920 H   0  0  0  0  0  0  0  0  0  0  0  0
   -5.4907   -2.8477  -11.9231 C   0  0  0  0  0  0  0  0  0  0  0  0
   -6.2458   -4.0419  -12.1247 O   0  0  0  0  0  0  0  0  0  0  0  0
   -5.8376   -4.4791  -12.8993 H   0  0  0  0  0  0  0  0  0  0  0  0
 14 15  1  0
 14 16  1  0
  2  3  1  0
  2  9  1  0
  2 15  1  0
  3  4  1  0
  4  5  1  0
  4  1  1  0
  1 17  1  0
 17 18  1  0
 17 25  1  0
 18 19  1  0
 18 20  1  0
 19 26  1  0
 20 21  1  0
 20 22  1  0
 21 27  1  0
 22 24  1  0
 22 23  1  0
 23 28  1  0
 24 25  1  0
 25 29  1  0
 29 30  1  0
 30 31  1  0
  5  6  1  0
  5  7  1  0
  6 11  1  0
  7  8  1  0
  7  9  1  0
  8 12  1  0
  9 10  1  0
 10 13  1  0
M  END
> <minimizedAffinity>
-5.23164

> <CNNscore>
0.7287466526

> <CNNaffinity>
2.8437185287

> <CNN_VS>
2.0723502636

> <CNNaffinity_variance>
0.6398923993

$$$$



 31 32  0  0  0  0  0  0  0  0999 V2000
   -1.0053   -4.0039  -15.7415 O   0  0  0  0  0  0  0  0  0  0  0  0
    2.3805   -4.8608  -16.6032 C   0  0  0  0  0  0  0  0  0  0  0  0
    1.1233   -4.1930  -16.5894 O   0  0  0  0  0  0  0  0  0  0  0  0
    0.2096   -4.7596  -15.6657 C   0  0  0  0  0  0  0  0  0  0  0  0
   -0.1015   -6.2213  -16.0658 C   0  0  0  0  0  0  0  0  0  0  0  0
   -0.6752   -6.9310  -14.9498 O   0  0  0  0  0  0  0  0  0  0  0  0
    1.1324   -7.0077  -16.5462 C   0  0  0  0  0  0  0  0  0  0  0  0
    0.6587   -8.1424  -17.3000 O   0  0  0  0  0  0  0  0  0  0  0  0
    2.1500   -6.1798  -17.3502 C   0  0  0  0  0  0  0  0  0  0  0  0
    3.3233   -6.9655  -17.5421 O   0  0  0  0  0  0  0  0  0  0  0  0
   -0.6203   -7.8813  -15.1741 H   0  0  0  0  0  0  0  0  0  0  0  0
    0.6408   -7.8902  -18.2392 H   0  0  0  0  0  0  0  0  0  0  0  0
    4.0241   -6.6316  -16.9484 H   0  0  0  0  0  0  0  0  0  0  0  0
    4.3697   -3.4814  -16.3228 O   0  0  0  0  0  0  0  0  0  0  0  0
    3.3911   -3.9129  -17.2606 C   0  0  0  0  0  0  0  0  0  0  0  0
    5.0910   -3.0880  -16.8479 H   0  0  0  0  0  0  0  0  0  0  0  0
   -0.8977   -2.5946  -15.4405 C   0  0  0  0  0  0  0  0  0  0  0  0
   -1.0421   -1.6927  -16.6951 C   0  0  0  0  0  0  0  0  0  0  0  0
    0.1995   -1.6077  -17.4261 O   0  0  0  0  0  0  0  0  0  0  0  0
   -1.4570   -0.2429  -16.4003 C   0  0  0  0  0  0  0  0  0  0  0  0
   -1.8815    0.4277  -17.6011 O   0  0  0  0  0  0  0  0  0  0  0  0
   -2.5523   -0.1743  -15.3285 C   0  0  0  0  0  0  0  0  0  0  0  0
   -2.8152    1.1695  -14.9440 O   0  0  0  0  0  0  0  0  0  0  0  0
   -2.1315   -0.8852  -14.1753 O   0  0  0  0  0  0  0  0  0  0  0  0
   -2.0300   -2.2910  -14.4337 C   0  0  0  0  0  0  0  0  0  0  0  0
    0.9161   -1.4067  -16.7994 H   0  0  0  0  0  0  0  0  0  0  0  0
   -2.2897   -0.2231  -18.1955 H   0  0  0  0  0  0  0  0  0  0  0  0
   -2.0431    1.7023  -15.1979 H   0  0  0  0  0  0  0  0  0  0  0  0
   -1.7930   -2.9719  -13.0766 C   0  0  0  0  0  0  0  0  0  0  0  0
   -3.0317   -3.4214  -12.5283 O   0  0  0  0  0  0  0  0  0  0  0  0
   -3.4080   -4.0262  -13.1993 H   0  0  0  0  0  0  0  0  0  0  0  0
 14 15  1  0
 14 16  1  0
  2  3  1  0
  2  9  1  0
  2 15  1  0
  3  4  1  0
  4  5  1  0
  4  1  1  0
  1 17  1  0
 17 18  1  0
 17 25  1  0
 18 19  1  0
 18 20  1  0
 19 26  1  0
 20 21  1  0
 20 22  1  0
 21 27  1  0
 22 24  1  0
 22 23  1  0
 23 28  1  0
 24 25  1  0
 25 29  1  0
 29 30  1  0
 30 31  1  0
  5  6  1  0
  5  7  1  0
  6 11  1  0
  7  8  1  0
  7  9  1  0
  8 12  1  0
  9 10  1  0
 10 13  1  0
M  END
> <minimizedAffinity>
-4.94561

> <CNNscore>
0.7248771191

> <CNNaffinity>
2.9967906475

> <CNN_VS>
2.1723048687

> <CNNaffinity_variance>
0.6758230329

$$$$



 31 32  0  0  0  0  0  0  0  0999 V2000
   -1.3694   -0.7178  -15.4937 O   0  0  0  0  0  0  0  0  0  0  0  0
   -4.4332   -1.9015  -14.0264 C   0  0  0  0  0  0  0  0  0  0  0  0
   -3.3845   -1.0279  -14.4311 O   0  0  0  0  0  0  0  0  0  0  0  0
   -2.3548   -1.6959  -15.1401 C   0  0  0  0  0  0  0  0  0  0  0  0
   -1.6870   -2.7498  -14.2252 C   0  0  0  0  0  0  0  0  0  0  0  0
   -0.9500   -3.7014  -15.0185 O   0  0  0  0  0  0  0  0  0  0  0  0
   -2.6848   -3.5312  -13.3502 C   0  0  0  0  0  0  0  0  0  0  0  0
   -1.9430   -4.1139  -12.2592 O   0  0  0  0  0  0  0  0  0  0  0  0
   -3.8803   -2.7057  -12.8438 C   0  0  0  0  0  0  0  0  0  0  0  0
   -4.8187   -3.5909  -12.2383 O   0  0  0  0  0  0  0  0  0  0  0  0
   -0.7646   -4.4606  -14.4305 H   0  0  0  0  0  0  0  0  0  0  0  0
   -1.9919   -3.5020  -11.5047 H   0  0  0  0  0  0  0  0  0  0  0  0
   -5.5792   -3.7015  -12.8420 H   0  0  0  0  0  0  0  0  0  0  0  0
   -5.3085    0.3517  -13.7175 O   0  0  0  0  0  0  0  0  0  0  0  0
   -5.6518   -1.0286  -13.7021 C   0  0  0  0  0  0  0  0  0  0  0  0
   -6.1527    0.8390  -13.7395 H   0  0  0  0  0  0  0  0  0  0  0  0
   -1.2152   -0.4519  -16.9058 C   0  0  0  0  0  0  0  0  0  0  0  0
   -1.5809   -1.6689  -17.7967 C   0  0  0  0  0  0  0  0  0  0  0  0
   -0.4874   -2.6074  -17.8776 O   0  0  0  0  0  0  0  0  0  0  0  0
   -1.9423   -1.3174  -19.2482 C   0  0  0  0  0  0  0  0  0  0  0  0
   -2.5735   -2.4303  -19.9077 O   0  0  0  0  0  0  0  0  0  0  0  0
   -2.8324   -0.0704  -19.3240 C   0  0  0  0  0  0  0  0  0  0  0  0
   -3.0281    0.3434  -20.6705 O   0  0  0  0  0  0  0  0  0  0  0  0
   -2.2131    0.9966  -18.6237 O   0  0  0  0  0  0  0  0  0  0  0  0
   -2.1539    0.7358  -17.2159 C   0  0  0  0  0  0  0  0  0  0  0  0
    0.3275   -2.1181  -18.0853 H   0  0  0  0  0  0  0  0  0  0  0  0
   -3.0776   -2.9384  -19.2510 H   0  0  0  0  0  0  0  0  0  0  0  0
   -2.3143   -0.0466  -21.2025 H   0  0  0  0  0  0  0  0  0  0  0  0
   -1.6798    2.0355  -16.5472 C   0  0  0  0  0  0  0  0  0  0  0  0
   -2.1461    2.0944  -15.1995 O   0  0  0  0  0  0  0  0  0  0  0  0
   -1.7924    1.2907  -14.7675 H   0  0  0  0  0  0  0  0  0  0  0  0
 14 15  1  0
 14 16  1  0
  2  3  1  0
  2  9  1  0
  2 15  1  0
  3  4  1  0
  4  5  1  0
  4  1  1  0
  1 17  1  0
 17 18  1  0
 17 25  1  0
 18 19  1  0
 18 20  1  0
 19 26  1  0
 20 21  1  0
 20 22  1  0
 21 27  1  0
 22 24  1  0
 22 23  1  0
 23 28  1  0
 24 25  1  0
 25 29  1  0
 29 30  1  0
 30 31  1  0
  5  6  1  0
  5  7  1  0
  6 11  1  0
  7  8  1  0
  7  9  1  0
  8 12  1  0
  9 10  1  0
 10 13  1  0
M  END
> <minimizedAffinity>
-4.81022

> <CNNscore>
0.6107484102

> <CNNaffinity>
2.8862915039

> <CNN_VS>
1.7627979517

> <CNNaffinity_variance>
0.6524525285

$$$$



 31 32  0  0  0  0  0  0  0  0999 V2000
   -2.4414   -3.4969  -15.4127 O   0  0  0  0  0  0  0  0  0  0  0  0
   -5.9005   -4.0135  -14.5714 C   0  0  0  0  0  0  0  0  0  0  0  0
   -4.7304   -3.6888  -15.3142 O   0  0  0  0  0  0  0  0  0  0  0  0
   -3.5396   -3.8464  -14.5616 C   0  0  0  0  0  0  0  0  0  0  0  0
   -3.5488   -2.8758  -13.3568 C   0  0  0  0  0  0  0  0  0  0  0  0
   -2.5829   -3.2960  -12.3725 O   0  0  0  0  0  0  0  0  0  0  0  0
   -4.9187   -2.7645  -12.6619 C   0  0  0  0  0  0  0  0  0  0  0  0
   -4.9208   -1.5410  -11.8982 O   0  0  0  0  0  0  0  0  0  0  0  0
   -6.1287   -2.8418  -13.6091 C   0  0  0  0  0  0  0  0  0  0  0  0
   -7.3136   -2.9415  -12.8237 O   0  0  0  0  0  0  0  0  0  0  0  0
   -2.8010   -2.8100  -11.5523 H   0  0  0  0  0  0  0  0  0  0  0  0
   -5.3135   -0.8444  -12.4518 H   0  0  0  0  0  0  0  0  0  0  0  0
   -7.6427   -3.8605  -12.8691 H   0  0  0  0  0  0  0  0  0  0  0  0
   -6.9549   -5.5594  -16.1324 O   0  0  0  0  0  0  0  0  0  0  0  0
   -7.0294   -4.2497  -15.5823 C   0  0  0  0  0  0  0  0  0  0  0  0
   -7.8118   -5.7168  -16.5701 H   0  0  0  0  0  0  0  0  0  0  0  0
   -1.2492   -4.3021  -15.2759 C   0  0  0  0  0  0  0  0  0  0  0  0
   -1.5540   -5.7885  -14.9503 C   0  0  0  0  0  0  0  0  0  0  0  0
   -1.8135   -5.9749  -13.5428 O   0  0  0  0  0  0  0  0  0  0  0  0
   -0.4246   -6.7686  -15.3036 C   0  0  0  0  0  0  0  0  0  0  0  0
   -0.8948   -8.1289  -15.2807 O   0  0  0  0  0  0  0  0  0  0  0  0
    0.2066   -6.4391  -16.6622 C   0  0  0  0  0  0  0  0  0  0  0  0
    1.3528   -7.2444  -16.9081 O   0  0  0  0  0  0  0  0  0  0  0  0
    0.6147   -5.0806  -16.6777 O   0  0  0  0  0  0  0  0  0  0  0  0
   -0.5104   -4.1944  -16.6288 C   0  0  0  0  0  0  0  0  0  0  0  0
   -1.1114   -5.5312  -13.0359 H   0  0  0  0  0  0  0  0  0  0  0  0
   -1.8293   -8.1416  -15.5452 H   0  0  0  0  0  0  0  0  0  0  0  0
    1.6615   -7.5826  -16.0508 H   0  0  0  0  0  0  0  0  0  0  0  0
    0.0334   -2.7789  -16.8780 C   0  0  0  0  0  0  0  0  0  0  0  0
    1.3286   -2.8467  -17.4738 O   0  0  0  0  0  0  0  0  0  0  0  0
    1.2084   -3.3610  -18.2976 H   0  0  0  0  0  0  0  0  0  0  0  0
 14 15  1  0
 14 16  1  0
  2  3  1  0
  2  9  1  0
  2 15  1  0
  3  4  1  0
  4  5  1  0
  4  1  1  0
  1 17  1  0
 17 18  1  0
 17 25  1  0
 18 19  1  0
 18 20  1  0
 19 26  1  0
 20 21  1  0
 20 22  1  0
 21 27  1  0
 22 24  1  0
 22 23  1  0
 23 28  1  0
 24 25  1  0
 25 29  1  0
 29 30  1  0
 30 31  1  0
  5  6  1  0
  5  7  1  0
  6 11  1  0
  7  8  1  0
  7  9  1  0
  8 12  1  0
  9 10  1  0
 10 13  1  0
M  END
> <minimizedAffinity>
-4.67117

> <CNNscore>
0.5933071971

> <CNNaffinity>
3.5612916946

> <CNN_VS>
2.1129400730

> <CNNaffinity_variance>
0.6340903640

$$$$



 31 32  0  0  0  0  0  0  0  0999 V2000
   -3.9365   -4.5631  -14.4800 O   0  0  0  0  0  0  0  0  0  0  0  0
   -1.0245   -3.5277  -16.3209 C   0  0  0  0  0  0  0  0  0  0  0  0
   -2.2933   -4.0984  -16.0195 O   0  0  0  0  0  0  0  0  0  0  0  0
   -2.6492   -3.9588  -14.6546 C   0  0  0  0  0  0  0  0  0  0  0  0
   -1.6326   -4.7162  -13.7678 C   0  0  0  0  0  0  0  0  0  0  0  0
   -1.7226   -4.2564  -12.4044 O   0  0  0  0  0  0  0  0  0  0  0  0
   -0.1713   -4.5579  -14.2278 C   0  0  0  0  0  0  0  0  0  0  0  0
    0.5883   -5.6347  -13.6416 O   0  0  0  0  0  0  0  0  0  0  0  0
    0.0199   -4.4962  -15.7532 C   0  0  0  0  0  0  0  0  0  0  0  0
    1.3717   -4.1375  -16.0265 O   0  0  0  0  0  0  0  0  0  0  0  0
   -0.9150   -4.5764  -11.9552 H   0  0  0  0  0  0  0  0  0  0  0  0
    0.6219   -6.3618  -14.2867 H   0  0  0  0  0  0  0  0  0  0  0  0
    1.3948   -3.2062  -16.3218 H   0  0  0  0  0  0  0  0  0  0  0  0
   -0.1743   -4.3398  -18.4553 O   0  0  0  0  0  0  0  0  0  0  0  0
   -0.9648   -3.3296  -17.8405 C   0  0  0  0  0  0  0  0  0  0  0  0
   -0.3711   -4.2926  -19.4091 H   0  0  0  0  0  0  0  0  0  0  0  0
   -5.0238   -3.6644  -14.1661 C   0  0  0  0  0  0  0  0  0  0  0  0
   -4.5403   -2.2685  -13.6907 C   0  0  0  0  0  0  0  0  0  0  0  0
   -4.1814   -2.2855  -12.2928 O   0  0  0  0  0  0  0  0  0  0  0  0
   -5.5744   -1.1427  -13.8462 C   0  0  0  0  0  0  0  0  0  0  0  0
   -4.9581    0.1495  -13.6970 O   0  0  0  0  0  0  0  0  0  0  0  0
   -6.3150   -1.2354  -15.1862 C   0  0  0  0  0  0  0  0  0  0  0  0
   -7.3787   -0.2938  -15.2547 O   0  0  0  0  0  0  0  0  0  0  0  0
   -6.8691   -2.5331  -15.3323 O   0  0  0  0  0  0  0  0  0  0  0  0
   -5.8467   -3.5279  -15.4670 C   0  0  0  0  0  0  0  0  0  0  0  0
   -4.8973   -2.7152  -11.7933 H   0  0  0  0  0  0  0  0  0  0  0  0
   -4.0445    0.1001  -14.0234 H   0  0  0  0  0  0  0  0  0  0  0  0
   -7.5988   -0.0351  -14.3440 H   0  0  0  0  0  0  0  0  0  0  0  0
   -6.5551   -4.8391  -15.8416 C   0  0  0  0  0  0  0  0  0  0  0  0
   -6.5845   -5.7209  -14.7197 O   0  0  0  0  0  0  0  0  0  0  0  0
   -7.0453   -5.2255  -14.0126 H   0  0  0  0  0  0  0  0  0  0  0  0
 14 15  1  0
 14 16  1  0
  2  3  1  0
  2  9  1  0
  2 15  1  0
  3  4  1  0
  4  5  1  0
  4  1  1  0
  1 17  1  0
 17 18  1  0
 17 25  1  0
 18 19  1  0
 18 20  1  0
 19 26  1  0
 20 21  1  0
 20 22  1  0
 21 27  1  0
 22 24  1  0
 22 23  1  0
 23 28  1  0
 24 25  1  0
 25 29  1  0
 29 30  1  0
 30 31  1  0
  5  6  1  0
  5  7  1  0
  6 11  1  0
  7  8  1  0
  7  9  1  0
  8 12  1  0
  9 10  1  0
 10 13  1  0
M  END
> <minimizedAffinity>
-4.96918

> <CNNscore>
0.5794842243

> <CNNaffinity>
3.2286803722

> <CNN_VS>
1.8709692955

> <CNNaffinity_variance>
0.9354558587

$$$$



 31 32  0  0  0  0  0  0  0  0999 V2000
   -2.4326   -2.0521  -14.1122 O   0  0  0  0  0  0  0  0  0  0  0  0
   -5.4172   -0.0459  -14.1984 C   0  0  0  0  0  0  0  0  0  0  0  0
   -4.0432   -0.4115  -14.1290 O   0  0  0  0  0  0  0  0  0  0  0  0
   -3.8434   -1.8137  -14.1855 C   0  0  0  0  0  0  0  0  0  0  0  0
   -4.5143   -2.4882  -12.9654 C   0  0  0  0  0  0  0  0  0  0  0  0
   -4.6861   -3.8987  -13.2092 O   0  0  0  0  0  0  0  0  0  0  0  0
   -5.8906   -1.8958  -12.6096 C   0  0  0  0  0  0  0  0  0  0  0  0
   -6.1828   -2.2630  -11.2458 O   0  0  0  0  0  0  0  0  0  0  0  0
   -6.0124   -0.3771  -12.8247 C   0  0  0  0  0  0  0  0  0  0  0  0
   -7.3786   -0.0047  -12.6649 O   0  0  0  0  0  0  0  0  0  0  0  0
   -5.3191   -4.2164  -12.5348 H   0  0  0  0  0  0  0  0  0  0  0  0
   -5.8887   -1.5353  -10.6713 H   0  0  0  0  0  0  0  0  0  0  0  0
   -7.7586    0.1773  -13.5467 H   0  0  0  0  0  0  0  0  0  0  0  0
   -5.9468    2.2297  -13.5058 O   0  0  0  0  0  0  0  0  0  0  0  0
   -5.4738    1.4364  -14.5877 C   0  0  0  0  0  0  0  0  0  0  0  0
   -5.7361    3.1532  -13.7367 H   0  0  0  0  0  0  0  0  0  0  0  0
   -1.8666   -2.8520  -15.1744 C   0  0  0  0  0  0  0  0  0  0  0  0
   -1.1563   -2.0029  -16.2619 C   0  0  0  0  0  0  0  0  0  0  0  0
   -2.1036   -1.4607  -17.2063 O   0  0  0  0  0  0  0  0  0  0  0  0
   -0.1186   -2.7675  -17.0984 C   0  0  0  0  0  0  0  0  0  0  0  0
    0.7137   -1.8605  -17.8444 O   0  0  0  0  0  0  0  0  0  0  0  0
    0.7392   -3.6939  -16.2274 C   0  0  0  0  0  0  0  0  0  0  0  0
    1.5834   -4.5161  -17.0237 O   0  0  0  0  0  0  0  0  0  0  0  0
   -0.1043   -4.5418  -15.4645 O   0  0  0  0  0  0  0  0  0  0  0  0
   -0.8539   -3.8004  -14.4940 C   0  0  0  0  0  0  0  0  0  0  0  0
   -2.6944   -2.1761  -17.4993 H   0  0  0  0  0  0  0  0  0  0  0  0
    0.8134   -1.0381  -17.3372 H   0  0  0  0  0  0  0  0  0  0  0  0
    1.2075   -4.5394  -17.9197 H   0  0  0  0  0  0  0  0  0  0  0  0
   -1.5471   -4.8327  -13.5912 C   0  0  0  0  0  0  0  0  0  0  0  0
   -1.7924   -4.2730  -12.3014 O   0  0  0  0  0  0  0  0  0  0  0  0
   -2.3394   -3.4779  -12.4635 H   0  0  0  0  0  0  0  0  0  0  0  0
 14 15  1  0
 14 16  1  0
  2  3  1  0
  2  9  1  0
  2 15  1  0
  3  4  1  0
  4  5  1  0
  4  1  1  0
  1 17  1  0
 17 18  1  0
 17 25  1  0
 18 19  1  0
 18 20  1  0
 19 26  1  0
 20 21  1  0
 20 22  1  0
 21 27  1  0
 22 24  1  0
 22 23  1  0
 23 28  1  0
 24 25  1  0
 25 29  1  0
 29 30  1  0
 30 31  1  0
  5  6  1  0
  5  7  1  0
  6 11  1  0
  7  8  1  0
  7  9  1  0
  8 12  1  0
  9 10  1  0
 10 13  1  0
M  END
> <minimizedAffinity>
-5.45001

> <CNNscore>
0.5468330383

> <CNNaffinity>
2.8109016418

> <CNN_VS>
1.5370938778

> <CNNaffinity_variance>
0.5356389880

$$$$



 31 32  0  0  0  0  0  0  0  0999 V2000
   -1.9464   -0.7489  -14.7057 O   0  0  0  0  0  0  0  0  0  0  0  0
   -1.2101    0.8394  -17.8483 C   0  0  0  0  0  0  0  0  0  0  0  0
   -1.0697    0.0383  -16.6800 O   0  0  0  0  0  0  0  0  0  0  0  0
   -2.2059    0.0947  -15.8344 C   0  0  0  0  0  0  0  0  0  0  0  0
   -2.4078    1.5411  -15.3237 C   0  0  0  0  0  0  0  0  0  0  0  0
   -3.7491    1.7088  -14.8226 O   0  0  0  0  0  0  0  0  0  0  0  0
   -2.1634    2.6168  -16.3984 C   0  0  0  0  0  0  0  0  0  0  0  0
   -1.9285    3.8664  -15.7175 O   0  0  0  0  0  0  0  0  0  0  0  0
   -1.0319    2.2913  -17.3888 C   0  0  0  0  0  0  0  0  0  0  0  0
   -1.0585    3.2534  -18.4397 O   0  0  0  0  0  0  0  0  0  0  0  0
   -3.8936    2.6732  -14.7488 H   0  0  0  0  0  0  0  0  0  0  0  0
   -0.9676    3.9710  -15.6089 H   0  0  0  0  0  0  0  0  0  0  0  0
   -1.4278    2.8321  -19.2405 H   0  0  0  0  0  0  0  0  0  0  0  0
    0.5184   -0.7957  -18.3745 O   0  0  0  0  0  0  0  0  0  0  0  0
   -0.1697    0.3494  -18.8629 C   0  0  0  0  0  0  0  0  0  0  0  0
    0.9781   -1.1818  -19.1428 H   0  0  0  0  0  0  0  0  0  0  0  0
   -2.0811   -2.1702  -14.9296 C   0  0  0  0  0  0  0  0  0  0  0  0
   -0.7169   -2.8913  -15.0940 C   0  0  0  0  0  0  0  0  0  0  0  0
   -0.2078   -2.7514  -16.4373 O   0  0  0  0  0  0  0  0  0  0  0  0
   -0.7498   -4.4014  -14.8115 C   0  0  0  0  0  0  0  0  0  0  0  0
    0.5814   -4.9290  -14.6655 O   0  0  0  0  0  0  0  0  0  0  0  0
   -1.5977   -4.7277  -13.5756 C   0  0  0  0  0  0  0  0  0  0  0  0
   -1.7579   -6.1318  -13.4152 O   0  0  0  0  0  0  0  0  0  0  0  0
   -2.8868   -4.1538  -13.7207 O   0  0  0  0  0  0  0  0  0  0  0  0
   -2.8295   -2.7222  -13.6955 C   0  0  0  0  0  0  0  0  0  0  0  0
   -0.9190   -2.9717  -17.0637 H   0  0  0  0  0  0  0  0  0  0  0  0
    1.1507   -4.2411  -14.2832 H   0  0  0  0  0  0  0  0  0  0  0  0
   -1.5767   -6.5465  -14.2754 H   0  0  0  0  0  0  0  0  0  0  0  0
   -4.2821   -2.2248  -13.6316 C   0  0  0  0  0  0  0  0  0  0  0  0
   -4.5940   -1.7839  -12.3105 O   0  0  0  0  0  0  0  0  0  0  0  0
   -3.9405   -1.0836  -12.1098 H   0  0  0  0  0  0  0  0  0  0  0  0
 14 15  1  0
 14 16  1  0
  2  3  1  0
  2  9  1  0
  2 15  1  0
  3  4  1  0
  4  5  1  0
  4  1  1  0
  1 17  1  0
 17 18  1  0
 17 25  1  0
 18 19  1  0
 18 20  1  0
 19 26  1  0
 20 21  1  0
 20 22  1  0
 21 27  1  0
 22 24  1  0
 22 23  1  0
 23 28  1  0
 24 25  1  0
 25 29  1  0
 29 30  1  0
 30 31  1  0
  5  6  1  0
  5  7  1  0
  6 11  1  0
  7  8  1  0
  7  9  1  0
  8 12  1  0
  9 10  1  0
 10 13  1  0
M  END
> <minimizedAffinity>
-4.80629

> <CNNscore>
0.5264754295

> <CNNaffinity>
2.5579540730

> <CNN_VS>
1.3466999531

> <CNNaffinity_variance>
0.8841049075

$$$$



 31 32  0  0  0  0  0  0  0  0999 V2000
   -3.1934   -1.2442  -16.6041 O   0  0  0  0  0  0  0  0  0  0  0  0
   -3.6597    1.6103  -18.7430 C   0  0  0  0  0  0  0  0  0  0  0  0
   -3.4472    0.2689  -18.3164 O   0  0  0  0  0  0  0  0  0  0  0  0
   -3.4059    0.1403  -16.9054 C   0  0  0  0  0  0  0  0  0  0  0  0
   -2.2142    0.9490  -16.3402 C   0  0  0  0  0  0  0  0  0  0  0  0
   -2.3917    1.1744  -14.9274 O   0  0  0  0  0  0  0  0  0  0  0  0
   -2.0170    2.3172  -17.0191 C   0  0  0  0  0  0  0  0  0  0  0  0
   -0.6660    2.7452  -16.7508 O   0  0  0  0  0  0  0  0  0  0  0  0
   -2.3281    2.3386  -18.5258 C   0  0  0  0  0  0  0  0  0  0  0  0
   -2.3123    3.6916  -18.9728 O   0  0  0  0  0  0  0  0  0  0  0  0
   -1.7595    1.8792  -14.6825 H   0  0  0  0  0  0  0  0  0  0  0  0
   -0.1099    2.4633  -17.4973 H   0  0  0  0  0  0  0  0  0  0  0  0
   -3.2334    3.9838  -19.1185 H   0  0  0  0  0  0  0  0  0  0  0  0
   -5.5526    1.4432  -20.2685 O   0  0  0  0  0  0  0  0  0  0  0  0
   -4.1362    1.5537  -20.1997 C   0  0  0  0  0  0  0  0  0  0  0  0
   -5.7942    1.6474  -21.1908 H   0  0  0  0  0  0  0  0  0  0  0  0
   -2.7177   -1.5395  -15.2718 C   0  0  0  0  0  0  0  0  0  0  0  0
   -3.8562   -1.9339  -14.2937 C   0  0  0  0  0  0  0  0  0  0  0  0
   -4.5265   -0.7675  -13.7709 O   0  0  0  0  0  0  0  0  0  0  0  0
   -3.4003   -2.7418  -13.0688 C   0  0  0  0  0  0  0  0  0  0  0  0
   -4.5238   -3.3394  -12.3963 O   0  0  0  0  0  0  0  0  0  0  0  0
   -2.3680   -3.8111  -13.4482 C   0  0  0  0  0  0  0  0  0  0  0  0
   -1.8307   -4.4432  -12.2930 O   0  0  0  0  0  0  0  0  0  0  0  0
   -1.2967   -3.2057  -14.1541 O   0  0  0  0  0  0  0  0  0  0  0  0
   -1.7223   -2.7108  -15.4297 C   0  0  0  0  0  0  0  0  0  0  0  0
   -3.8546   -0.1367  -13.4588 H   0  0  0  0  0  0  0  0  0  0  0  0
   -5.2080   -3.5471  -13.0538 H   0  0  0  0  0  0  0  0  0  0  0  0
   -1.9894   -3.8535  -11.5369 H   0  0  0  0  0  0  0  0  0  0  0  0
   -0.4517   -2.2901  -16.1847 C   0  0  0  0  0  0  0  0  0  0  0  0
    0.4764   -3.3735  -16.2288 O   0  0  0  0  0  0  0  0  0  0  0  0
   -0.0023   -4.1074  -16.6646 H   0  0  0  0  0  0  0  0  0  0  0  0
 14 15  1  0
 14 16  1  0
  2  3  1  0
  2  9  1  0
  2 15  1  0
  3  4  1  0
  4  5  1  0
  4  1  1  0
  1 17  1  0
 17 18  1  0
 17 25  1  0
 18 19  1  0
 18 20  1  0
 19 26  1  0
 20 21  1  0
 20 22  1  0
 21 27  1  0
 22 24  1  0
 22 23  1  0
 23 28  1  0
 24 25  1  0
 25 29  1  0
 29 30  1  0
 30 31  1  0
  5  6  1  0
  5  7  1  0
  6 11  1  0
  7  8  1  0
  7  9  1  0
  8 12  1  0
  9 10  1  0
 10 13  1  0
M  END
> <minimizedAffinity>
-4.64725

> <CNNscore>
0.5044901967

> <CNNaffinity>
3.0024499893

> <CNN_VS>
1.5147066116

> <CNNaffinity_variance>
0.4361991882

$$$$



 31 32  0  0  0  0  0  0  0  0999 V2000
   -1.6307   -2.4495  -14.8073 O   0  0  0  0  0  0  0  0  0  0  0  0
   -4.8170   -2.2062  -16.4591 C   0  0  0  0  0  0  0  0  0  0  0  0
   -3.4163   -2.1247  -16.2187 O   0  0  0  0  0  0  0  0  0  0  0  0
   -3.0530   -2.5757  -14.9250 C   0  0  0  0  0  0  0  0  0  0  0  0
   -3.7111   -1.6757  -13.8523 C   0  0  0  0  0  0  0  0  0  0  0  0
   -3.7044   -2.3407  -12.5732 O   0  0  0  0  0  0  0  0  0  0  0  0
   -5.1649   -1.2859  -14.1783 C   0  0  0  0  0  0  0  0  0  0  0  0
   -5.4912   -0.1241  -13.3884 O   0  0  0  0  0  0  0  0  0  0  0  0
   -5.4486   -1.0516  -15.6723 C   0  0  0  0  0  0  0  0  0  0  0  0
   -6.8556   -0.9124  -15.8502 O   0  0  0  0  0  0  0  0  0  0  0  0
   -4.3345   -1.8505  -12.0082 H   0  0  0  0  0  0  0  0  0  0  0  0
   -5.3170    0.6642  -13.9309 H   0  0  0  0  0  0  0  0  0  0  0  0
   -7.2023   -1.7312  -16.2557 H   0  0  0  0  0  0  0  0  0  0  0  0
   -5.9777   -1.1469  -18.3217 O   0  0  0  0  0  0  0  0  0  0  0  0
   -5.0217   -2.1424  -17.9777 C   0  0  0  0  0  0  0  0  0  0  0  0
   -5.8829   -1.0025  -19.2813 H   0  0  0  0  0  0  0  0  0  0  0  0
   -0.8967   -3.6795  -14.6154 C   0  0  0  0  0  0  0  0  0  0  0  0
   -1.7324   -4.7824  -13.9129 C   0  0  0  0  0  0  0  0  0  0  0  0
   -1.7495   -4.5965  -12.4818 O   0  0  0  0  0  0  0  0  0  0  0  0
   -1.2297   -6.2158  -14.1452 C   0  0  0  0  0  0  0  0  0  0  0  0
   -2.2197   -7.1817  -13.7466 O   0  0  0  0  0  0  0  0  0  0  0  0
   -0.8142   -6.4405  -15.6045 C   0  0  0  0  0  0  0  0  0  0  0  0
   -0.1999   -7.7116  -15.7768 O   0  0  0  0  0  0  0  0  0  0  0  0
    0.1219   -5.4463  -15.9888 O   0  0  0  0  0  0  0  0  0  0  0  0
   -0.4800   -4.1464  -16.0282 C   0  0  0  0  0  0  0  0  0  0  0  0
   -0.8373   -4.4508  -12.1763 H   0  0  0  0  0  0  0  0  0  0  0  0
   -3.1025   -6.8047  -13.8952 H   0  0  0  0  0  0  0  0  0  0  0  0
    0.1048   -8.0095  -14.9032 H   0  0  0  0  0  0  0  0  0  0  0  0
    0.5516   -3.2031  -16.6665 C   0  0  0  0  0  0  0  0  0  0  0  0
    1.8678   -3.7309  -16.5051 O   0  0  0  0  0  0  0  0  0  0  0  0
    1.8460   -4.6146  -16.9250 H   0  0  0  0  0  0  0  0  0  0  0  0
 14 15  1  0
 14 16  1  0
  2  3  1  0
  2  9  1  0
  2 15  1  0
  3  4  1  0
  4  5  1  0
  4  1  1  0
  1 17  1  0
 17 18  1  0
 17 25  1  0
 18 19  1  0
 18 20  1  0
 19 26  1  0
 20 21  1  0
 20 22  1  0
 21 27  1  0
 22 24  1  0
 22 23  1  0
 23 28  1  0
 24 25  1  0
 25 29  1  0
 29 30  1  0
 30 31  1  0
  5  6  1  0
  5  7  1  0
  6 11  1  0
  7  8  1  0
  7  9  1  0
  8 12  1  0
  9 10  1  0
 10 13  1  0
M  END
> <minimizedAffinity>
-4.88373

> <CNNscore>
0.4721129239

> <CNNaffinity>
2.9829609394

> <CNN_VS>
1.4082944393

> <CNNaffinity_variance>
0.8075764179

$$$$



 31 32  0  0  0  0  0  0  0  0999 V2000
   -2.7389   -0.4770  -14.4563 O   0  0  0  0  0  0  0  0  0  0  0  0
   -4.1730    0.1874  -17.6878 C   0  0  0  0  0  0  0  0  0  0  0  0
   -3.6352   -0.5160  -16.5732 O   0  0  0  0  0  0  0  0  0  0  0  0
   -3.2561    0.3429  -15.5113 C   0  0  0  0  0  0  0  0  0  0  0  0
   -2.1312    1.2946  -15.9832 C   0  0  0  0  0  0  0  0  0  0  0  0
   -2.0243    2.4201  -15.0887 O   0  0  0  0  0  0  0  0  0  0  0  0
   -2.3378    1.8381  -17.4093 C   0  0  0  0  0  0  0  0  0  0  0  0
   -1.0592    2.3051  -17.8861 O   0  0  0  0  0  0  0  0  0  0  0  0
   -2.9777    0.8414  -18.3912 C   0  0  0  0  0  0  0  0  0  0  0  0
   -3.3035    1.5345  -19.5929 O   0  0  0  0  0  0  0  0  0  0  0  0
   -1.4889    3.0907  -15.5577 H   0  0  0  0  0  0  0  0  0  0  0  0
   -0.6438    1.5803  -18.3844 H   0  0  0  0  0  0  0  0  0  0  0  0
   -4.2707    1.6712  -19.6231 H   0  0  0  0  0  0  0  0  0  0  0  0
   -6.2482   -1.0493  -18.0076 O   0  0  0  0  0  0  0  0  0  0  0  0
   -4.9463   -0.8292  -18.5366 C   0  0  0  0  0  0  0  0  0  0  0  0
   -6.7496   -1.5068  -18.7075 H   0  0  0  0  0  0  0  0  0  0  0  0
   -2.6941   -1.8975  -14.7184 C   0  0  0  0  0  0  0  0  0  0  0  0
   -1.2659   -2.4107  -15.0425 C   0  0  0  0  0  0  0  0  0  0  0  0
   -0.9219   -2.1686  -16.4231 O   0  0  0  0  0  0  0  0  0  0  0  0
   -1.0565   -3.9157  -14.8142 C   0  0  0  0  0  0  0  0  0  0  0  0
    0.3437   -4.2494  -14.8191 O   0  0  0  0  0  0  0  0  0  0  0  0
   -1.7188   -4.3887  -13.5139 C   0  0  0  0  0  0  0  0  0  0  0  0
   -1.6622   -5.8044  -13.3907 O   0  0  0  0  0  0  0  0  0  0  0  0
   -3.0840   -4.0032  -13.5105 O   0  0  0  0  0  0  0  0  0  0  0  0
   -3.2268   -2.5792  -13.4381 C   0  0  0  0  0  0  0  0  0  0  0  0
   -1.6553   -2.4748  -16.9845 H   0  0  0  0  0  0  0  0  0  0  0  0
    0.8464   -3.4955  -14.4693 H   0  0  0  0  0  0  0  0  0  0  0  0
   -1.5135   -6.1692  -14.2792 H   0  0  0  0  0  0  0  0  0  0  0  0
   -4.7207   -2.2977  -13.2136 C   0  0  0  0  0  0  0  0  0  0  0  0
   -4.9155   -1.6418  -11.9610 O   0  0  0  0  0  0  0  0  0  0  0  0
   -4.3754   -0.8271  -12.0083 H   0  0  0  0  0  0  0  0  0  0  0  0
 14 15  1  0
 14 16  1  0
  2  3  1  0
  2  9  1  0
  2 15  1  0
  3  4  1  0
  4  5  1  0
  4  1  1  0
  1 17  1  0
 17 18  1  0
 17 25  1  0
 18 19  1  0
 18 20  1  0
 19 26  1  0
 20 21  1  0
 20 22  1  0
 21 27  1  0
 22 24  1  0
 22 23  1  0
 23 28  1  0
 24 25  1  0
 25 29  1  0
 29 30  1  0
 30 31  1  0
  5  6  1  0
  5  7  1  0
  6 11  1  0
  7  8  1  0
  7  9  1  0
  8 12  1  0
  9 10  1  0
 10 13  1  0
M  END
> <minimizedAffinity>
-4.61967

> <CNNscore>
0.4633027017

> <CNNaffinity>
2.5490734577

> <CNN_VS>
1.1809926033

> <CNNaffinity_variance>
0.9121191502

$$$$



 31 32  0  0  0  0  0  0  0  0999 V2000
   -3.8307   -1.8936  -15.8229 O   0  0  0  0  0  0  0  0  0  0  0  0
   -6.0008   -0.0818  -13.5984 C   0  0  0  0  0  0  0  0  0  0  0  0
   -5.5527   -1.0022  -14.5877 O   0  0  0  0  0  0  0  0  0  0  0  0
   -4.1566   -0.9241  -14.8196 C   0  0  0  0  0  0  0  0  0  0  0  0
   -3.7931    0.4782  -15.3626 C   0  0  0  0  0  0  0  0  0  0  0  0
   -2.3797    0.7188  -15.2118 O   0  0  0  0  0  0  0  0  0  0  0  0
   -4.5480    1.6263  -14.6670 C   0  0  0  0  0  0  0  0  0  0  0  0
   -4.4846    2.7769  -15.5343 O   0  0  0  0  0  0  0  0  0  0  0  0
   -5.9976    1.2961  -14.2709 C   0  0  0  0  0  0  0  0  0  0  0  0
   -6.4976    2.3541  -13.4577 O   0  0  0  0  0  0  0  0  0  0  0  0
   -2.2526    1.6807  -15.3347 H   0  0  0  0  0  0  0  0  0  0  0  0
   -5.2879    2.7819  -16.0826 H   0  0  0  0  0  0  0  0  0  0  0  0
   -6.5279    2.0482  -12.5300 H   0  0  0  0  0  0  0  0  0  0  0  0
   -7.3758   -0.7837  -11.7129 O   0  0  0  0  0  0  0  0  0  0  0  0
   -7.3751   -0.5643  -13.1183 C   0  0  0  0  0  0  0  0  0  0  0  0
   -8.3125   -0.8548  -11.4518 H   0  0  0  0  0  0  0  0  0  0  0  0
   -2.7225   -2.7714  -15.5232 C   0  0  0  0  0  0  0  0  0  0  0  0
   -2.5048   -2.9768  -14.0004 C   0  0  0  0  0  0  0  0  0  0  0  0
   -1.7630   -1.8813  -13.4237 O   0  0  0  0  0  0  0  0  0  0  0  0
   -1.7315   -4.2512  -13.6278 C   0  0  0  0  0  0  0  0  0  0  0  0
   -1.8525   -4.5370  -12.2223 O   0  0  0  0  0  0  0  0  0  0  0  0
   -2.1863   -5.4543  -14.4637 C   0  0  0  0  0  0  0  0  0  0  0  0
   -1.3590   -6.5874  -14.2308 O   0  0  0  0  0  0  0  0  0  0  0  0
   -2.1067   -5.1302  -15.8424 O   0  0  0  0  0  0  0  0  0  0  0  0
   -3.0579   -4.1197  -16.1995 C   0  0  0  0  0  0  0  0  0  0  0  0
   -0.9816   -1.7094  -13.9774 H   0  0  0  0  0  0  0  0  0  0  0  0
   -2.7203   -4.2283  -11.9137 H   0  0  0  0  0  0  0  0  0  0  0  0
   -0.5221   -6.2658  -13.8554 H   0  0  0  0  0  0  0  0  0  0  0  0
   -3.0362   -4.0170  -17.7326 C   0  0  0  0  0  0  0  0  0  0  0  0
   -1.7950   -3.4661  -18.1718 O   0  0  0  0  0  0  0  0  0  0  0  0
   -1.1061   -4.0648  -17.8186 H   0  0  0  0  0  0  0  0  0  0  0  0
 14 15  1  0
 14 16  1  0
  2  3  1  0
  2  9  1  0
  2 15  1  0
  3  4  1  0
  4  5  1  0
  4  1  1  0
  1 17  1  0
 17 18  1  0
 17 25  1  0
 18 19  1  0
 18 20  1  0
 19 26  1  0
 20 21  1  0
 20 22  1  0
 21 27  1  0
 22 24  1  0
 22 23  1  0
 23 28  1  0
 24 25  1  0
 25 29  1  0
 29 30  1  0
 30 31  1  0
  5  6  1  0
  5  7  1  0
  6 11  1  0
  7  8  1  0
  7  9  1  0
  8 12  1  0
  9 10  1  0
 10 13  1  0
M  END
> <minimizedAffinity>
-4.47115

> <CNNscore>
0.4505581856

> <CNNaffinity>
2.8570137024

> <CNN_VS>
1.2872508764

> <CNNaffinity_variance>
0.5476202965

$$$$



 31 32  0  0  0  0  0  0  0  0999 V2000
   -2.5254   -2.4351  -15.5442 O   0  0  0  0  0  0  0  0  0  0  0  0
   -1.0784    0.3735  -17.2643 C   0  0  0  0  0  0  0  0  0  0  0  0
   -2.0412   -0.5519  -16.7710 O   0  0  0  0  0  0  0  0  0  0  0  0
   -1.4639   -1.5781  -15.9818 C   0  0  0  0  0  0  0  0  0  0  0  0
   -0.4874   -2.4145  -16.8423 C   0  0  0  0  0  0  0  0  0  0  0  0
    0.4005   -3.1700  -15.9943 O   0  0  0  0  0  0  0  0  0  0  0  0
    0.3735   -1.5695  -17.7997 C   0  0  0  0  0  0  0  0  0  0  0  0
    0.8720   -2.4496  -18.8278 O   0  0  0  0  0  0  0  0  0  0  0  0
   -0.3428   -0.3474  -18.4001 C   0  0  0  0  0  0  0  0  0  0  0  0
    0.6189    0.4510  -19.0845 O   0  0  0  0  0  0  0  0  0  0  0  0
    1.1322   -3.4734  -16.5678 H   0  0  0  0  0  0  0  0  0  0  0  0
    0.2587   -2.4056  -19.5815 H   0  0  0  0  0  0  0  0  0  0  0  0
    0.8068    1.2447  -18.5462 H   0  0  0  0  0  0  0  0  0  0  0  0
   -3.2371    1.4830  -17.4827 O   0  0  0  0  0  0  0  0  0  0  0  0
   -1.8377    1.6379  -17.6850 C   0  0  0  0  0  0  0  0  0  0  0  0
   -3.6187    2.3782  -17.5430 H   0  0  0  0  0  0  0  0  0  0  0  0
   -3.0559   -2.1687  -14.2266 C   0  0  0  0  0  0  0  0  0  0  0  0
   -4.4207   -1.4307  -14.2589 C   0  0  0  0  0  0  0  0  0  0  0  0
   -4.2453   -0.0109  -14.4500 O   0  0  0  0  0  0  0  0  0  0  0  0
   -5.2641   -1.5828  -12.9835 C   0  0  0  0  0  0  0  0  0  0  0  0
   -6.6210   -1.1581  -13.2074 O   0  0  0  0  0  0  0  0  0  0  0  0
   -5.2302   -3.0207  -12.4505 C   0  0  0  0  0  0  0  0  0  0  0  0
   -5.8753   -3.1185  -11.1868 O   0  0  0  0  0  0  0  0  0  0  0  0
   -3.8829   -3.4336  -12.2872 O   0  0  0  0  0  0  0  0  0  0  0  0
   -3.2129   -3.5484  -13.5487 C   0  0  0  0  0  0  0  0  0  0  0  0
   -3.5698    0.3056  -13.8253 H   0  0  0  0  0  0  0  0  0  0  0  0
   -6.8585   -1.3428  -14.1310 H   0  0  0  0  0  0  0  0  0  0  0  0
   -5.9053   -2.2254  -10.8043 H   0  0  0  0  0  0  0  0  0  0  0  0
   -1.8551   -4.2106  -13.2671 C   0  0  0  0  0  0  0  0  0  0  0  0
   -1.3881   -4.8910  -14.4315 O   0  0  0  0  0  0  0  0  0  0  0  0
   -1.3429   -4.2075  -15.1305 H   0  0  0  0  0  0  0  0  0  0  0  0
 14 15  1  0
 14 16  1  0
  2  3  1  0
  2  9  1  0
  2 15  1  0
  3  4  1  0
  4  5  1  0
  4  1  1  0
  1 17  1  0
 17 18  1  0
 17 25  1  0
 18 19  1  0
 18 20  1  0
 19 26  1  0
 20 21  1  0
 20 22  1  0
 21 27  1  0
 22 24  1  0
 22 23  1  0
 23 28  1  0
 24 25  1  0
 25 29  1  0
 29 30  1  0
 30 31  1  0
  5  6  1  0
  5  7  1  0
  6 11  1  0
  7  8  1  0
  7  9  1  0
  8 12  1  0
  9 10  1  0
 10 13  1  0
M  END
> <minimizedAffinity>
-4.42179

> <CNNscore>
0.3922461867

> <CNNaffinity>
2.5392291546

> <CNN_VS>
0.9960029721

> <CNNaffinity_variance>
0.6783952713

$$$$



 31 32  0  0  0  0  0  0  0  0999 V2000
   -4.3437   -2.3924  -15.9378 O   0  0  0  0  0  0  0  0  0  0  0  0
   -4.6526    1.1452  -15.3631 C   0  0  0  0  0  0  0  0  0  0  0  0
   -4.0916   -0.1604  -15.4474 O   0  0  0  0  0  0  0  0  0  0  0  0
   -5.0235   -1.1321  -15.8905 C   0  0  0  0  0  0  0  0  0  0  0  0
   -6.1857   -1.2448  -14.8755 C   0  0  0  0  0  0  0  0  0  0  0  0
   -7.3188   -1.8933  -15.4870 O   0  0  0  0  0  0  0  0  0  0  0  0
   -6.6568    0.1125  -14.3206 C   0  0  0  0  0  0  0  0  0  0  0  0
   -7.3777   -0.1440  -13.0981 O   0  0  0  0  0  0  0  0  0  0  0  0
   -5.5360    1.1453  -14.1099 C   0  0  0  0  0  0  0  0  0  0  0  0
   -6.1307    2.4036  -13.8037 O   0  0  0  0  0  0  0  0  0  0  0  0
   -8.0819   -1.7178  -14.9011 H   0  0  0  0  0  0  0  0  0  0  0  0
   -6.7513   -0.0589  -12.3588 H   0  0  0  0  0  0  0  0  0  0  0  0
   -6.0596    2.9825  -14.5879 H   0  0  0  0  0  0  0  0  0  0  0  0
   -3.9053    3.4022  -14.8283 O   0  0  0  0  0  0  0  0  0  0  0  0
   -3.4856    2.1399  -15.3323 C   0  0  0  0  0  0  0  0  0  0  0  0
   -3.0894    3.8933  -14.6189 H   0  0  0  0  0  0  0  0  0  0  0  0
   -3.0363   -2.4334  -15.3234 C   0  0  0  0  0  0  0  0  0  0  0  0
   -3.0507   -3.0655  -13.9061 C   0  0  0  0  0  0  0  0  0  0  0  0
   -3.4640   -2.1078  -12.9085 O   0  0  0  0  0  0  0  0  0  0  0  0
   -1.6944   -3.6094  -13.4311 C   0  0  0  0  0  0  0  0  0  0  0  0
   -1.8520   -4.4543  -12.2765 O   0  0  0  0  0  0  0  0  0  0  0  0
   -0.9610   -4.3581  -14.5511 C   0  0  0  0  0  0  0  0  0  0  0  0
    0.3575   -4.7161  -14.1558 O   0  0  0  0  0  0  0  0  0  0  0  0
   -0.8639   -3.5235  -15.6940 O   0  0  0  0  0  0  0  0  0  0  0  0
   -2.1512   -3.2732  -16.2716 C   0  0  0  0  0  0  0  0  0  0  0  0
   -2.9578   -1.2869  -13.0372 H   0  0  0  0  0  0  0  0  0  0  0  0
   -2.7124   -4.9018  -12.3312 H   0  0  0  0  0  0  0  0  0  0  0  0
    0.6054   -4.1417  -13.4119 H   0  0  0  0  0  0  0  0  0  0  0  0
   -1.9018   -2.5605  -17.6100 C   0  0  0  0  0  0  0  0  0  0  0  0
   -1.0377   -1.4408  -17.4182 O   0  0  0  0  0  0  0  0  0  0  0  0
   -0.2215   -1.8081  -17.0224 H   0  0  0  0  0  0  0  0  0  0  0  0
 14 15  1  0
 14 16  1  0
  2  3  1  0
  2  9  1  0
  2 15  1  0
  3  4  1  0
  4  5  1  0
  4  1  1  0
  1 17  1  0
 17 18  1  0
 17 25  1  0
 18 19  1  0
 18 20  1  0
 19 26  1  0
 20 21  1  0
 20 22  1  0
 21 27  1  0
 22 24  1  0
 22 23  1  0
 23 28  1  0
 24 25  1  0
 25 29  1  0
 29 30  1  0
 30 31  1  0
  5  6  1  0
  5  7  1  0
  6 11  1  0
  7  8  1  0
  7  9  1  0
  8 12  1  0
  9 10  1  0
 10 13  1  0
M  END
> <minimizedAffinity>
-4.49712

> <CNNscore>
0.3636150956

> <CNNaffinity>
2.7381916046

> <CNN_VS>
0.9956477880

> <CNNaffinity_variance>
0.6489862800

$$$$
