@<TRIPOS>MOLECULE
UD2
 46 48 0 0 0
SMALL
GASTEIGER

@<TRIPOS>ATOM
      1 P          21.9520   70.8281   -2.6769 P.3     1  UNL1        0.2189
      2 O          21.3419   69.3434   -2.7986 O.3     1  UNL1       -0.4371
      3 O          23.3115   70.8527   -3.2599 O.2     1  UNL1       -0.5170
      4 O          21.0082   71.8628   -3.4721 O.3     1  UNL1       -0.3112
      5 C          20.0051   72.6515   -2.8292 C.3     1  UNL1        0.1811
      6 C          17.8417   71.4529   -5.4406 C.3     1  UNL1        0.2383
      7 C          18.0004   70.2459   -4.4814 C.3     1  UNL1        0.1895
      8 O          16.8260   69.4321   -4.4870 O.3     1  UNL1       -0.3779
      9 C          18.1837   70.9419   -3.1105 C.3     1  UNL1        0.1713
     10 C          18.6446   72.3672   -3.4704 C.3     1  UNL1        0.1764
     11 O          18.7554   72.4326   -4.9011 O.3     1  UNL1       -0.3308
     12 O          16.9444   70.9806   -2.4010 O.3     1  UNL1       -0.3794
     13 H          16.8769   68.6636   -3.9026 H       1  UNL1        0.2106
     14 H          16.5780   70.1090   -2.2000 H       1  UNL1        0.2105
     15 N          18.2278   71.0826   -6.8040 N.ar    1  UNL1       -0.2551
     16 C          17.2844   70.7014   -7.6835 C.ar    1  UNL1        0.3323
     17 N          17.6106   70.3554   -8.9429 N.ar    1  UNL1       -0.2743
     18 C          18.8977   70.3882   -9.3440 C.ar    1  UNL1        0.2626
     19 C          19.9010   70.7885   -8.4289 C.ar    1  UNL1        0.0795
     20 C          19.5449   71.1341   -7.1738 C.ar    1  UNL1        0.0869
     21 O          16.1198   70.6673   -7.3357 O.2     1  UNL1       -0.2464
     22 O          19.1943   70.0757  -10.4837 O.2     1  UNL1       -0.2670
     23 H          16.9181   70.0818   -9.5639 H       1  UNL1        0.1734
     24 O          22.0252   71.2530   -1.1253 O.3     1  UNL1       -0.2703
     25 P          22.5663   70.5294    0.2075 P.3     1  UNL1        0.2208
     26 O          21.5339   69.3742    0.6473 O.3     1  UNL1       -0.4371
     27 O          23.8919   69.9298   -0.0599 O.2     1  UNL1       -0.5170
     28 O          22.6960   71.6130    1.3914 O.3     1  UNL1       -0.2865
     29 C          21.8753   72.7798    1.4721 C.3     1  UNL1        0.2611
     30 C          22.7192   74.0203    1.1691 C.3     1  UNL1        0.1582
     31 C          23.8183   74.1506    2.2281 C.3     1  UNL1        0.1625
     32 C          23.1716   74.2129    3.6146 C.3     1  UNL1        0.1686
     33 C          22.3101   72.9646    3.8233 C.3     1  UNL1        0.1760
     34 O          24.5656   75.3467    1.9955 O.3     1  UNL1       -0.3801
     35 O          22.3527   75.3800    3.7077 O.3     1  UNL1       -0.3794
     36 O          21.3283   72.8868    2.7880 O.3     1  UNL1       -0.3263
     37 H          25.2806   75.4929    2.6301 H       1  UNL1        0.2105
     38 H          21.9100   75.4836    4.5616 H       1  UNL1        0.2105
     39 C          22.8443   74.5907   -1.1966 C.2     1  UNL1        0.2231
     40 C          23.4713   74.4527   -2.5591 C.3     1  UNL1        0.0946
     41 N          23.3295   73.8853   -0.1559 N.am    1  UNL1       -0.2994
     42 O          21.9016   75.3375   -1.0353 O.2     1  UNL1       -0.2751
     43 H          24.0825   73.2874   -0.2847 H       1  UNL1        0.1496
     44 C          21.6130   73.0478    5.1825 C.3     1  UNL1        0.1693
     45 O          22.5360   73.5248    6.1637 O.3     1  UNL1       -0.3794
     46 H          22.1615   73.6027    7.0518 H       1  UNL1        0.2105
@<TRIPOS>BOND
     1    29    30    1
     2    30    41    1
     3    30    31    1
     4    31    34    1
     5    31    32    1
     6    32    35    1
     7    32    33    1
     8    33    36    1
     9    33    44    1
    10    39    40    1
    11    39    42    2
    12    39    41   am
    13    41    43    1
    14    29    28    1
    15    34    37    1
    16    35    38    1
    17    29    36    1
    18    44    45    1
    19    45    46    1
    20    15     6    1
    21    15    16   ar
    22    16    21    2
    23    16    17   ar
    24    17    23    1
    25    17    18   ar
    26    18    19   ar
    27    19    20   ar
    28    15    20   ar
    29    18    22    2
    30     6     7    1
    31     6    11    1
    32     7     9    1
    33     7     8    1
    34     8    13    1
    35     9    10    1
    36     9    12    1
    37    10     5    1
    38    10    11    1
    39    12    14    1
    40     5     4    1
    41     4     1    1
    42     1     2    1
    43     1    24    1
    44     1     3    2
    45    24    25    1
    46    28    25    1
    47    25    26    1
    48    25    27    2
@<TRIPOS>MOLECULE
UD2
 46 48 0 0 0
SMALL
GASTEIGER

@<TRIPOS>ATOM
      1 P          21.8978   73.5277   -6.1424 P.3     1  UNL1        0.2189
      2 O          23.1169   74.5789   -6.1303 O.3     1  UNL1       -0.4371
      3 O          20.6230   74.2471   -5.9271 O.2     1  UNL1       -0.5170
      4 O          21.8545   72.7728   -7.5644 O.3     1  UNL1       -0.3112
      5 C          21.0461   73.2169   -8.6557 C.3     1  UNL1        0.1811
      6 C          18.4755   71.0703   -7.3439 C.3     1  UNL1        0.2383
      7 C          17.8535   72.4894   -7.3091 C.3     1  UNL1        0.1895
      8 O          16.4373   72.4301   -7.4897 O.3     1  UNL1       -0.3779
      9 C          18.5364   73.1736   -8.5186 C.3     1  UNL1        0.1713
     10 C          19.8027   72.3306   -8.7626 C.3     1  UNL1        0.1764
     11 O          19.8401   71.3120   -7.7504 O.3     1  UNL1       -0.3308
     12 O          17.6811   73.1347   -9.6622 O.3     1  UNL1       -0.3794
     13 H          16.0022   73.2933   -7.4750 H       1  UNL1        0.2106
     14 H          16.8424   73.6003   -9.5431 H       1  UNL1        0.2105
     15 N          18.4338   70.4561   -6.0150 N.ar    1  UNL1       -0.2551
     16 C          17.3307   69.7954   -5.6205 C.ar    1  UNL1        0.3323
     17 N          17.2646   69.2215   -4.4046 N.ar    1  UNL1       -0.2743
     18 C          18.3123   69.2999   -3.5592 C.ar    1  UNL1        0.2626
     19 C          19.4802   69.9913   -3.9618 C.ar    1  UNL1        0.0795
     20 C          19.5204   70.5536   -5.1881 C.ar    1  UNL1        0.0869
     21 O          16.3786   69.7166   -6.3725 O.2     1  UNL1       -0.2464
     22 O          18.2539   68.7805   -2.4586 O.2     1  UNL1       -0.2670
     23 H          16.4612   68.7500   -4.1356 H       1  UNL1        0.1734
     24 O          22.1093   72.4465   -4.9679 O.3     1  UNL1       -0.2703
     25 P          23.0605   72.3770   -3.6705 P.3     1  UNL1        0.2208
     26 O          23.4333   70.8411   -3.3607 O.3     1  UNL1       -0.4371
     27 O          24.3000   73.1430   -3.9256 O.2     1  UNL1       -0.5170
     28 O          22.2897   73.0082   -2.4056 O.3     1  UNL1       -0.2865
     29 C          21.1964   72.3571   -1.7559 C.3     1  UNL1        0.2611
     30 C          20.5344   73.3267   -0.7739 C.3     1  UNL1        0.1582
     31 C          21.5489   73.7197    0.3044 C.3     1  UNL1        0.1625
     32 C          22.0600   72.4525    0.9953 C.3     1  UNL1        0.1686
     33 C          22.6634   71.5164   -0.0552 C.3     1  UNL1        0.1760
     34 O          20.9179   74.5672    1.2671 O.3     1  UNL1       -0.3801
     35 O          20.9747   71.7964    1.6534 O.3     1  UNL1       -0.3794
     36 O          21.6775   71.2148   -1.0446 O.3     1  UNL1       -0.3263
     37 H          21.5037   74.8557    1.9804 H       1  UNL1        0.2105
     38 H          21.2263   70.9831    2.1130 H       1  UNL1        0.2105
     39 C          20.9116   75.5922   -1.5881 C.2     1  UNL1        0.2231
     40 C          20.4595   76.8249   -2.3262 C.3     1  UNL1        0.0946
     41 N          20.0938   74.5254   -1.4918 N.am    1  UNL1       -0.2994
     42 O          22.0128   75.5592   -1.0796 O.2     1  UNL1       -0.2751
     43 H          19.2130   74.5518   -1.8974 H       1  UNL1        0.1496
     44 C          23.1225   70.2221    0.6189 C.3     1  UNL1        0.1693
     45 O          22.0384   69.2916    0.6535 O.3     1  UNL1       -0.3794
     46 H          22.2580   68.4462    1.0684 H       1  UNL1        0.2105
@<TRIPOS>BOND
     1    29    30    1
     2    30    41    1
     3    30    31    1
     4    31    34    1
     5    31    32    1
     6    32    35    1
     7    32    33    1
     8    33    36    1
     9    33    44    1
    10    39    40    1
    11    39    42    2
    12    39    41   am
    13    41    43    1
    14    29    28    1
    15    34    37    1
    16    35    38    1
    17    29    36    1
    18    44    45    1
    19    45    46    1
    20    15     6    1
    21    15    16   ar
    22    16    21    2
    23    16    17   ar
    24    17    23    1
    25    17    18   ar
    26    18    19   ar
    27    19    20   ar
    28    15    20   ar
    29    18    22    2
    30     6     7    1
    31     6    11    1
    32     7     9    1
    33     7     8    1
    34     8    13    1
    35     9    10    1
    36     9    12    1
    37    10     5    1
    38    10    11    1
    39    12    14    1
    40     5     4    1
    41     4     1    1
    42     1     2    1
    43     1    24    1
    44     1     3    2
    45    24    25    1
    46    28    25    1
    47    25    26    1
    48    25    27    2
@<TRIPOS>MOLECULE
UD2
 46 48 0 0 0
SMALL
GASTEIGER

@<TRIPOS>ATOM
      1 P          22.9917   72.1954   -3.3162 P.3     1  UNL1        0.2189
      2 O          23.3771   70.6326   -3.3340 O.3     1  UNL1       -0.4371
      3 O          23.6888   72.8887   -4.4218 O.2     1  UNL1       -0.5170
      4 O          21.3999   72.3576   -3.4999 O.3     1  UNL1       -0.3112
      5 C          20.4507   71.7652   -2.6114 C.3     1  UNL1        0.1811
      6 C          18.0828   71.2939   -5.2773 C.3     1  UNL1        0.2383
      7 C          18.0082   69.9832   -4.4536 C.3     1  UNL1        0.1895
      8 O          16.6978   69.4167   -4.5139 O.3     1  UNL1       -0.3779
      9 C          18.3301   70.4794   -3.0227 C.3     1  UNL1        0.1713
     10 C          19.0578   71.8193   -3.2437 C.3     1  UNL1        0.1764
     11 O          19.1722   72.0152   -4.6621 O.3     1  UNL1       -0.3308
     12 O          17.1255   70.6803   -2.2815 O.3     1  UNL1       -0.3794
     13 H          16.6010   68.5946   -4.0144 H       1  UNL1        0.2106
     14 H          16.5974   69.8793   -2.1633 H       1  UNL1        0.2105
     15 N          18.3828   71.0045   -6.6813 N.ar    1  UNL1       -0.2551
     16 C          17.3762   70.7987   -7.5492 C.ar    1  UNL1        0.3323
     17 N          17.6227   70.5306   -8.8452 N.ar    1  UNL1       -0.2743
     18 C          18.8922   70.4660   -9.2953 C.ar    1  UNL1        0.2626
     19 C          19.9615   70.6815   -8.3930 C.ar    1  UNL1        0.0795
     20 C          19.6851   70.9526   -7.1000 C.ar    1  UNL1        0.0869
     21 O          16.2265   70.8542   -7.1573 O.2     1  UNL1       -0.2464
     22 O          19.1167   70.2239  -10.4681 O.2     1  UNL1       -0.2670
     23 H          16.8852   70.3836   -9.4572 H       1  UNL1        0.1734
     24 O          23.4376   72.8425   -1.9106 O.3     1  UNL1       -0.2703
     25 P          23.4504   74.3422   -1.3244 P.3     1  UNL1        0.2208
     26 O          24.8809   75.0209   -1.6189 O.3     1  UNL1       -0.4371
     27 O          22.3852   75.1358   -1.9755 O.2     1  UNL1       -0.5170
     28 O          23.1932   74.2994    0.2645 O.3     1  UNL1       -0.2865
     29 C          21.9017   74.0904    0.8387 C.3     1  UNL1        0.2611
     30 C          21.9678   74.3347    2.3483 C.3     1  UNL1        0.1582
     31 C          22.9270   73.3208    2.9794 C.3     1  UNL1        0.1625
     32 C          22.4517   71.9053    2.6407 C.3     1  UNL1        0.1686
     33 C          22.3670   71.7546    1.1195 C.3     1  UNL1        0.1760
     34 O          22.9387   73.4940    4.3982 O.3     1  UNL1       -0.3801
     35 O          21.1626   71.6839    3.2156 O.3     1  UNL1       -0.3794
     36 O          21.4833   72.7463    0.5926 O.3     1  UNL1       -0.3263
     37 H          23.5269   72.8838    4.8637 H       1  UNL1        0.2105
     38 H          20.7986   70.8049    3.0400 H       1  UNL1        0.2105
     39 C          23.7716   75.9160    2.7767 C.2     1  UNL1        0.2231
     40 C          24.2722   77.3122    3.0386 C.3     1  UNL1        0.0946
     41 N          22.4539   75.6931    2.6033 N.am    1  UNL1       -0.2994
     42 O          24.5548   74.9910    2.7217 O.2     1  UNL1       -0.2751
     43 H          21.8272   76.4322    2.6482 H       1  UNL1        0.1496
     44 C          21.8357   70.3622    0.7739 C.3     1  UNL1        0.1693
     45 O          22.9247   69.5148    0.4018 O.3     1  UNL1       -0.3794
     46 H          22.6612   68.6141    0.1690 H       1  UNL1        0.2105
@<TRIPOS>BOND
     1    29    30    1
     2    30    41    1
     3    30    31    1
     4    31    34    1
     5    31    32    1
     6    32    35    1
     7    32    33    1
     8    33    36    1
     9    33    44    1
    10    39    40    1
    11    39    42    2
    12    39    41   am
    13    41    43    1
    14    29    28    1
    15    34    37    1
    16    35    38    1
    17    29    36    1
    18    44    45    1
    19    45    46    1
    20    15     6    1
    21    15    16   ar
    22    16    21    2
    23    16    17   ar
    24    17    23    1
    25    17    18   ar
    26    18    19   ar
    27    19    20   ar
    28    15    20   ar
    29    18    22    2
    30     6     7    1
    31     6    11    1
    32     7     9    1
    33     7     8    1
    34     8    13    1
    35     9    10    1
    36     9    12    1
    37    10     5    1
    38    10    11    1
    39    12    14    1
    40     5     4    1
    41     4     1    1
    42     1     2    1
    43     1    24    1
    44     1     3    2
    45    24    25    1
    46    28    25    1
    47    25    26    1
    48    25    27    2
@<TRIPOS>MOLECULE
UD2
 46 48 0 0 0
SMALL
GASTEIGER

@<TRIPOS>ATOM
      1 P          20.3449   70.4210   -2.5432 P.3     1  UNL1        0.2189
      2 O          19.1517   69.4104   -2.1609 O.3     1  UNL1       -0.4371
      3 O          21.4129   69.6797   -3.2494 O.2     1  UNL1       -0.5170
      4 O          19.7763   71.5848   -3.5003 O.3     1  UNL1       -0.3112
      5 C          19.3316   72.8494   -3.0060 C.3     1  UNL1        0.1811
      6 C          18.6382   73.5602   -6.4630 C.3     1  UNL1        0.2383
      7 C          17.2443   73.3322   -5.8248 C.3     1  UNL1        0.1895
      8 O          16.2469   74.1135   -6.4855 O.3     1  UNL1       -0.3779
      9 C          17.4650   73.8295   -4.3752 C.3     1  UNL1        0.1713
     10 C          18.9924   73.7663   -4.1839 C.3     1  UNL1        0.1764
     11 O          19.5536   73.2346   -5.3946 O.3     1  UNL1       -0.3308
     12 O          16.9976   75.1718   -4.2317 O.3     1  UNL1       -0.3794
     13 H          15.3574   74.0047   -6.1226 H       1  UNL1        0.2106
     14 H          16.0517   75.2798   -4.3995 H       1  UNL1        0.2105
     15 N          18.8361   72.6633   -7.6038 N.ar    1  UNL1       -0.2551
     16 C          18.5720   73.0997   -8.8482 C.ar    1  UNL1        0.3323
     17 N          18.7446   72.2970   -9.9151 N.ar    1  UNL1       -0.2743
     18 C          19.1901   71.0349   -9.7499 C.ar    1  UNL1        0.2626
     19 C          19.4731   70.5628   -8.4456 C.ar    1  UNL1        0.0795
     20 C          19.2949   71.3906   -7.3946 C.ar    1  UNL1        0.0869
     21 O          18.1699   74.2354   -9.0122 O.2     1  UNL1       -0.2464
     22 O          19.3472   70.3076  -10.7146 O.2     1  UNL1       -0.2670
     23 H          18.5483   72.6272  -10.8053 H       1  UNL1        0.1734
     24 O          20.9443   71.0768   -1.2000 O.3     1  UNL1       -0.2703
     25 P          22.0864   70.6358   -0.1541 P.3     1  UNL1        0.2208
     26 O          21.6453   69.2704    0.5772 O.3     1  UNL1       -0.4371
     27 O          23.3595   70.4192   -0.8756 O.2     1  UNL1       -0.5170
     28 O          22.2830   71.7950    0.9460 O.3     1  UNL1       -0.2865
     29 C          21.2143   72.6287    1.3979 C.3     1  UNL1        0.2611
     30 C          21.4554   74.0665    0.9317 C.3     1  UNL1        0.1582
     31 C          22.7505   74.5880    1.5619 C.3     1  UNL1        0.1625
     32 C          22.6429   74.4822    3.0856 C.3     1  UNL1        0.1686
     33 C          22.3561   73.0279    3.4688 C.3     1  UNL1        0.1760
     34 O          22.9452   75.9546    1.1906 O.3     1  UNL1       -0.3801
     35 O          21.5801   75.3172    3.5485 O.3     1  UNL1       -0.3794
     36 O          21.1557   72.5954    2.8254 O.3     1  UNL1       -0.3263
     37 H          23.7491   76.3500    1.5548 H       1  UNL1        0.2105
     38 H          21.4538   75.2989    4.5075 H       1  UNL1        0.2105
     39 C          22.7915   74.0325   -1.1057 C.2     1  UNL1        0.2231
     40 C          22.9159   74.0603   -2.6065 C.3     1  UNL1        0.0946
     41 N          21.5755   74.0939   -0.5282 N.am    1  UNL1       -0.2994
     42 O          23.7866   73.9548   -0.4158 O.2     1  UNL1       -0.2751
     43 H          20.7797   74.1570   -1.0794 H       1  UNL1        0.1496
     44 C          22.1880   72.9242    4.9858 C.3     1  UNL1        0.1693
     45 O          20.8263   73.1833    5.3337 O.3     1  UNL1       -0.3794
     46 H          20.6460   73.1346    6.2825 H       1  UNL1        0.2105
@<TRIPOS>BOND
     1    29    30    1
     2    30    41    1
     3    30    31    1
     4    31    34    1
     5    31    32    1
     6    32    35    1
     7    32    33    1
     8    33    36    1
     9    33    44    1
    10    39    40    1
    11    39    42    2
    12    39    41   am
    13    41    43    1
    14    29    28    1
    15    34    37    1
    16    35    38    1
    17    29    36    1
    18    44    45    1
    19    45    46    1
    20    15     6    1
    21    15    16   ar
    22    16    21    2
    23    16    17   ar
    24    17    23    1
    25    17    18   ar
    26    18    19   ar
    27    19    20   ar
    28    15    20   ar
    29    18    22    2
    30     6     7    1
    31     6    11    1
    32     7     9    1
    33     7     8    1
    34     8    13    1
    35     9    10    1
    36     9    12    1
    37    10     5    1
    38    10    11    1
    39    12    14    1
    40     5     4    1
    41     4     1    1
    42     1     2    1
    43     1    24    1
    44     1     3    2
    45    24    25    1
    46    28    25    1
    47    25    26    1
    48    25    27    2
@<TRIPOS>MOLECULE
UD2
 46 48 0 0 0
SMALL
GASTEIGER

@<TRIPOS>ATOM
      1 P          22.0270   70.8052   -0.3043 P.3     1  UNL1        0.2189
      2 O          21.6693   69.5503    0.6384 O.3     1  UNL1       -0.4371
      3 O          23.1805   70.4632   -1.1653 O.2     1  UNL1       -0.5170
      4 O          20.7561   71.1628   -1.2265 O.3     1  UNL1       -0.3112
      5 C          20.8039   71.1499   -2.6545 C.3     1  UNL1        0.1811
      6 C          18.2889   71.1226   -5.2256 C.3     1  UNL1        0.2383
      7 C          18.0992   69.7769   -4.4806 C.3     1  UNL1        0.1895
      8 O          16.7312   69.3653   -4.5113 O.3     1  UNL1       -0.3779
      9 C          18.5349   70.1386   -3.0395 C.3     1  UNL1        0.1713
     10 C          19.4013   71.4006   -3.2137 C.3     1  UNL1        0.1764
     11 O          19.4784   71.6757   -4.6215 O.3     1  UNL1       -0.3308
     12 O          17.3930   70.4232   -2.2297 O.3     1  UNL1       -0.3794
     13 H          16.5618   68.5280   -4.0586 H       1  UNL1        0.2106
     14 H          16.7821   69.6801   -2.1348 H       1  UNL1        0.2105
     15 N          18.4953   70.8948   -6.6576 N.ar    1  UNL1       -0.2551
     16 C          17.4338   70.8156   -7.4795 C.ar    1  UNL1        0.3323
     17 N          17.5938   70.6067   -8.7997 N.ar    1  UNL1       -0.2743
     18 C          18.8306   70.4747   -9.3209 C.ar    1  UNL1        0.2626
     19 C          19.9570   70.5570   -8.4674 C.ar    1  UNL1        0.0795
     20 C          19.7672   70.7713   -7.1485 C.ar    1  UNL1        0.0869
     21 O          16.3128   70.9329   -7.0234 O.2     1  UNL1       -0.2464
     22 O          18.9769   70.2860  -10.5157 O.2     1  UNL1       -0.2670
     23 H          16.8176   70.5510   -9.3781 H       1  UNL1        0.1734
     24 O          22.3990   72.0762    0.6119 O.3     1  UNL1       -0.2703
     25 P          21.6732   72.8169    1.8439 P.3     1  UNL1        0.2208
     26 O          20.4817   73.7450    1.2848 O.3     1  UNL1       -0.4371
     27 O          21.1172   71.8057    2.7694 O.2     1  UNL1       -0.5170
     28 O          22.7435   73.7304    2.6265 O.3     1  UNL1       -0.2865
     29 C          23.0747   73.5356    4.0026 C.3     1  UNL1        0.2611
     30 C          22.1985   74.4403    4.8723 C.3     1  UNL1        0.1582
     31 C          22.4898   75.9039    4.5266 C.3     1  UNL1        0.1625
     32 C          23.9832   76.1769    4.7256 C.3     1  UNL1        0.1686
     33 C          24.7907   75.2049    3.8612 C.3     1  UNL1        0.1760
     34 O          21.7297   76.7574    5.3852 O.3     1  UNL1       -0.3801
     35 O          24.3238   75.9902    6.1005 O.3     1  UNL1       -0.3794
     36 O          24.4501   73.8622    4.2120 O.3     1  UNL1       -0.3263
     37 H          21.8648   77.7008    5.2210 H       1  UNL1        0.2105
     38 H          25.2576   76.1462    6.2998 H       1  UNL1        0.2105
     39 C          19.9169   74.0653    5.6412 C.2     1  UNL1        0.2231
     40 C          18.4647   73.7651    5.3772 C.3     1  UNL1        0.0946
     41 N          20.7862   74.1480    4.6147 N.am    1  UNL1       -0.2994
     42 O          20.3048   74.2329    6.7786 O.2     1  UNL1       -0.2751
     43 H          20.4767   74.0132    3.7053 H       1  UNL1        0.1496
     44 C          26.2848   75.4314    4.0996 C.3     1  UNL1        0.1693
     45 O          26.7456   74.5416    5.1187 O.3     1  UNL1       -0.3794
     46 H          27.6867   74.6298    5.3226 H       1  UNL1        0.2105
@<TRIPOS>BOND
     1    29    30    1
     2    30    41    1
     3    30    31    1
     4    31    34    1
     5    31    32    1
     6    32    35    1
     7    32    33    1
     8    33    36    1
     9    33    44    1
    10    39    40    1
    11    39    42    2
    12    39    41   am
    13    41    43    1
    14    29    28    1
    15    34    37    1
    16    35    38    1
    17    29    36    1
    18    44    45    1
    19    45    46    1
    20    15     6    1
    21    15    16   ar
    22    16    21    2
    23    16    17   ar
    24    17    23    1
    25    17    18   ar
    26    18    19   ar
    27    19    20   ar
    28    15    20   ar
    29    18    22    2
    30     6     7    1
    31     6    11    1
    32     7     9    1
    33     7     8    1
    34     8    13    1
    35     9    10    1
    36     9    12    1
    37    10     5    1
    38    10    11    1
    39    12    14    1
    40     5     4    1
    41     4     1    1
    42     1     2    1
    43     1    24    1
    44     1     3    2
    45    24    25    1
    46    28    25    1
    47    25    26    1
    48    25    27    2
@<TRIPOS>MOLECULE
UD2
 46 48 0 0 0
SMALL
GASTEIGER

@<TRIPOS>ATOM
      1 P          22.3566   70.5061   -0.0505 P.3     1  UNL1        0.2189
      2 O          23.8202   69.8429   -0.1469 O.3     1  UNL1       -0.4371
      3 O          21.4035   69.5206    0.5056 O.2     1  UNL1       -0.5170
      4 O          22.4150   71.7975    0.9099 O.3     1  UNL1       -0.3112
      5 C          21.3785   72.1235    1.8377 C.3     1  UNL1        0.1811
      6 C          23.5182   74.0749    3.9709 C.3     1  UNL1        0.2383
      7 C          22.1455   74.7916    4.0351 C.3     1  UNL1        0.1895
      8 O          21.9571   75.4199    5.3046 O.3     1  UNL1       -0.3779
      9 C          21.1556   73.6157    3.8484 C.3     1  UNL1        0.1713
     10 C          22.0008   72.5144    3.1804 C.3     1  UNL1        0.1764
     11 O          23.3163   73.0523    2.9714 O.3     1  UNL1       -0.3308
     12 O          20.6644   73.1714    5.1141 O.3     1  UNL1       -0.3794
     13 H          21.1127   75.8823    5.3934 H       1  UNL1        0.2106
     14 H          20.1744   73.8446    5.6051 H       1  UNL1        0.2105
     15 N          24.5675   75.0066    3.5517 N.ar    1  UNL1       -0.2551
     16 C          25.2889   75.6595    4.4802 C.ar    1  UNL1        0.3323
     17 N          26.2592   76.5218    4.1235 N.ar    1  UNL1       -0.2743
     18 C          26.5249   76.7433    2.8201 C.ar    1  UNL1        0.2626
     19 C          25.7739   76.0621    1.8321 C.ar    1  UNL1        0.0795
     20 C          24.8099   75.2001    2.2183 C.ar    1  UNL1        0.0869
     21 O          25.0605   75.4694    5.6592 O.2     1  UNL1       -0.2464
     22 O          27.4031   77.5231    2.4959 O.2     1  UNL1       -0.2670
     23 H          26.7691   76.9851    4.8058 H       1  UNL1        0.1734
     24 O          21.8715   70.9523   -1.5198 O.3     1  UNL1       -0.2703
     25 P          22.6313   71.5008   -2.8293 P.3     1  UNL1        0.2208
     26 O          23.3095   72.9237   -2.4992 O.3     1  UNL1       -0.4371
     27 O          23.6790   70.5371   -3.2319 O.2     1  UNL1       -0.5170
     28 O          21.5728   71.6760   -4.0300 O.3     1  UNL1       -0.2865
     29 C          20.2148   72.0669   -3.8196 C.3     1  UNL1        0.2611
     30 C          19.3040   71.2807   -4.7657 C.3     1  UNL1        0.1582
     31 C          19.6680   71.6242   -6.2135 C.3     1  UNL1        0.1625
     32 C          19.5457   73.1372   -6.4141 C.3     1  UNL1        0.1686
     33 C          20.4474   73.8520   -5.4042 C.3     1  UNL1        0.1760
     34 O          18.7742   70.9507   -7.1028 O.3     1  UNL1       -0.3801
     35 O          18.1894   73.5378   -6.2115 O.3     1  UNL1       -0.3794
     36 O          20.0763   73.4653   -4.0795 O.3     1  UNL1       -0.3263
     37 H          18.9474   71.1226   -8.0386 H       1  UNL1        0.2105
     38 H          18.0382   74.4870   -6.3222 H       1  UNL1        0.2105
     39 C          18.6385   69.1723   -3.7413 C.2     1  UNL1        0.2231
     40 C          18.8276   67.6959   -3.5108 C.3     1  UNL1        0.0946
     41 N          19.4888   69.8446   -4.5419 N.am    1  UNL1       -0.2994
     42 O          17.7200   69.7572   -3.2059 O.2     1  UNL1       -0.2751
     43 H          20.2238   69.3776   -4.9693 H       1  UNL1        0.1496
     44 C          20.2858   75.3654   -5.5583 C.3     1  UNL1        0.1693
     45 O          19.8281   75.6644   -6.8787 O.3     1  UNL1       -0.3794
     46 H          19.7032   76.6081   -7.0480 H       1  UNL1        0.2105
@<TRIPOS>BOND
     1    29    30    1
     2    30    41    1
     3    30    31    1
     4    31    34    1
     5    31    32    1
     6    32    35    1
     7    32    33    1
     8    33    36    1
     9    33    44    1
    10    39    40    1
    11    39    42    2
    12    39    41   am
    13    41    43    1
    14    29    28    1
    15    34    37    1
    16    35    38    1
    17    29    36    1
    18    44    45    1
    19    45    46    1
    20    15     6    1
    21    15    16   ar
    22    16    21    2
    23    16    17   ar
    24    17    23    1
    25    17    18   ar
    26    18    19   ar
    27    19    20   ar
    28    15    20   ar
    29    18    22    2
    30     6     7    1
    31     6    11    1
    32     7     9    1
    33     7     8    1
    34     8    13    1
    35     9    10    1
    36     9    12    1
    37    10     5    1
    38    10    11    1
    39    12    14    1
    40     5     4    1
    41     4     1    1
    42     1     2    1
    43     1    24    1
    44     1     3    2
    45    24    25    1
    46    28    25    1
    47    25    26    1
    48    25    27    2
@<TRIPOS>MOLECULE
UD2
 46 48 0 0 0
SMALL
GASTEIGER

@<TRIPOS>ATOM
      1 P          21.3987   74.6961   -5.3270 P.3     1  UNL1        0.2189
      2 O          21.5847   74.3247   -6.8823 O.3     1  UNL1       -0.4371
      3 O          22.2540   75.8554   -4.9903 O.2     1  UNL1       -0.5170
      4 O          19.8570   75.0663   -5.0444 O.3     1  UNL1       -0.3112
      5 C          19.1880   74.7318   -3.8271 C.3     1  UNL1        0.1811
      6 C          18.0498   71.8309   -5.6232 C.3     1  UNL1        0.2383
      7 C          19.0478   71.2743   -4.5762 C.3     1  UNL1        0.1895
      8 O          18.6820   69.9524   -4.1753 O.3     1  UNL1       -0.3779
      9 C          18.8809   72.2728   -3.4047 C.3     1  UNL1        0.1713
     10 C          18.2739   73.5268   -4.0624 C.3     1  UNL1        0.1764
     11 O          18.1667   73.2622   -5.4702 O.3     1  UNL1       -0.3308
     12 O          17.9910   71.7432   -2.4206 O.3     1  UNL1       -0.3794
     13 H          19.2767   69.5607   -3.5214 H       1  UNL1        0.2106
     14 H          18.2961   70.9202   -2.0156 H       1  UNL1        0.2105
     15 N          18.4390   71.4227   -6.9748 N.ar    1  UNL1       -0.2551
     16 C          17.5496   71.5111   -7.9797 C.ar    1  UNL1        0.3323
     17 N          17.8799   71.1428   -9.2317 N.ar    1  UNL1       -0.2743
     18 C          19.1175   70.6780   -9.4982 C.ar    1  UNL1        0.2626
     19 C          20.0641   70.5806   -8.4501 C.ar    1  UNL1        0.0795
     20 C          19.7070   70.9609   -7.2054 C.ar    1  UNL1        0.0869
     21 O          16.4301   71.9286   -7.7540 O.2     1  UNL1       -0.2464
     22 O          19.4179   70.3447  -10.6310 O.2     1  UNL1       -0.2670
     23 H          17.2262   71.2118   -9.9444 H       1  UNL1        0.1734
     24 O          21.8220   73.4349   -4.4195 O.3     1  UNL1       -0.2703
     25 P          23.1371   73.0611   -3.5687 P.3     1  UNL1        0.2208
     26 O          23.3591   71.4662   -3.5978 O.3     1  UNL1       -0.4371
     27 O          24.3149   73.7334   -4.1595 O.2     1  UNL1       -0.5170
     28 O          22.9477   73.5492   -2.0460 O.3     1  UNL1       -0.2865
     29 C          21.6963   73.4890   -1.3591 C.3     1  UNL1        0.2611
     30 C          21.8367   74.1434    0.0174 C.3     1  UNL1        0.1582
     31 C          22.8595   73.3584    0.8444 C.3     1  UNL1        0.1625
     32 C          22.4102   71.8977    0.9392 C.3     1  UNL1        0.1686
     33 C          22.2478   71.3297   -0.4732 C.3     1  UNL1        0.1760
     34 O          22.9428   73.9185    2.1569 O.3     1  UNL1       -0.3801
     35 O          21.1616   71.8259    1.6300 O.3     1  UNL1       -0.3794
     36 O          21.3067   72.1235   -1.1987 O.3     1  UNL1       -0.3263
     37 H          23.5740   73.4700    2.7362 H       1  UNL1        0.2105
     38 H          20.8158   70.9275    1.7263 H       1  UNL1        0.2105
     39 C          21.3979   76.5317   -0.1852 C.2     1  UNL1        0.2231
     40 C          21.8671   77.9535   -0.3493 C.3     1  UNL1        0.0946
     41 N          22.2940   75.5261   -0.1425 N.am    1  UNL1       -0.2994
     42 O          20.2123   76.2911   -0.0913 O.2     1  UNL1       -0.2751
     43 H          23.2418   75.7180   -0.2185 H       1  UNL1        0.1496
     44 C          21.7415   69.8886   -0.3880 C.3     1  UNL1        0.1693
     45 O          22.4454   69.1960    0.6450 O.3     1  UNL1       -0.3794
     46 H          22.1754   68.2741    0.7558 H       1  UNL1        0.2105
@<TRIPOS>BOND
     1    29    30    1
     2    30    41    1
     3    30    31    1
     4    31    34    1
     5    31    32    1
     6    32    35    1
     7    32    33    1
     8    33    36    1
     9    33    44    1
    10    39    40    1
    11    39    42    2
    12    39    41   am
    13    41    43    1
    14    29    28    1
    15    34    37    1
    16    35    38    1
    17    29    36    1
    18    44    45    1
    19    45    46    1
    20    15     6    1
    21    15    16   ar
    22    16    21    2
    23    16    17   ar
    24    17    23    1
    25    17    18   ar
    26    18    19   ar
    27    19    20   ar
    28    15    20   ar
    29    18    22    2
    30     6     7    1
    31     6    11    1
    32     7     9    1
    33     7     8    1
    34     8    13    1
    35     9    10    1
    36     9    12    1
    37    10     5    1
    38    10    11    1
    39    12    14    1
    40     5     4    1
    41     4     1    1
    42     1     2    1
    43     1    24    1
    44     1     3    2
    45    24    25    1
    46    28    25    1
    47    25    26    1
    48    25    27    2
@<TRIPOS>MOLECULE
UD2
 46 48 0 0 0
SMALL
GASTEIGER

@<TRIPOS>ATOM
      1 P          22.5656   71.2415   -2.4577 P.3     1  UNL1        0.2189
      2 O          22.6613   70.6858   -0.9499 O.3     1  UNL1       -0.4371
      3 O          23.3125   70.3418   -3.3641 O.2     1  UNL1       -0.5170
      4 O          21.0213   71.2990   -2.9112 O.3     1  UNL1       -0.3112
      5 C          20.1879   72.4380   -2.6887 C.3     1  UNL1        0.1811
      6 C          17.9607   71.3823   -5.3082 C.3     1  UNL1        0.2383
      7 C          18.1337   70.1278   -4.4146 C.3     1  UNL1        0.1895
      8 O          16.9549   69.3206   -4.4349 O.3     1  UNL1       -0.3779
      9 C          18.3511   70.7529   -3.0149 C.3     1  UNL1        0.1713
     10 C          18.8120   72.1925   -3.3129 C.3     1  UNL1        0.1764
     11 O          18.8916   72.3294   -4.7406 O.3     1  UNL1       -0.3308
     12 O          17.1280   70.7615   -2.2769 O.3     1  UNL1       -0.3794
     13 H          17.0143   68.5234   -3.8912 H       1  UNL1        0.2106
     14 H          16.7611   69.8825   -2.1119 H       1  UNL1        0.2105
     15 N          18.3146   71.0793   -6.6967 N.ar    1  UNL1       -0.2551
     16 C          17.3511   70.7376   -7.5706 C.ar    1  UNL1        0.3323
     17 N          17.6476   70.4538   -8.8527 N.ar    1  UNL1       -0.2743
     18 C          18.9246   70.5104   -9.2826 C.ar    1  UNL1        0.2626
     19 C          19.9487   70.8697   -8.3737 C.ar    1  UNL1        0.0795
     20 C          19.6222   71.1531   -7.0952 C.ar    1  UNL1        0.0869
     21 O          16.1954   70.6828   -7.1970 O.2     1  UNL1       -0.2464
     22 O          19.1942   70.2541  -10.4428 O.2     1  UNL1       -0.2670
     23 H          16.9409   70.2080   -9.4694 H       1  UNL1        0.1734
     24 O          23.1997   72.7202   -2.5262 O.3     1  UNL1       -0.2703
     25 P          23.5511   73.7311   -3.7293 P.3     1  UNL1        0.2208
     26 O          23.2903   72.9978   -5.1393 O.3     1  UNL1       -0.4371
     27 O          22.6922   74.9316   -3.6321 O.2     1  UNL1       -0.5170
     28 O          25.0977   74.1676   -3.6290 O.3     1  UNL1       -0.2865
     29 C          25.5280   75.5286   -3.6905 C.3     1  UNL1        0.2611
     30 C          27.0536   75.5778   -3.8034 C.3     1  UNL1        0.1582
     31 C          27.6702   74.9514   -2.5488 C.3     1  UNL1        0.1625
     32 C          27.1552   75.6957   -1.3138 C.3     1  UNL1        0.1686
     33 C          25.6252   75.6419   -1.2970 C.3     1  UNL1        0.1760
     34 O          29.0942   75.0593   -2.6122 O.3     1  UNL1       -0.3801
     35 O          27.5852   77.0573   -1.3629 O.3     1  UNL1       -0.3794
     36 O          25.1168   76.2119   -2.5046 O.3     1  UNL1       -0.3263
     37 H          29.5512   74.6813   -1.8483 H       1  UNL1        0.2105
     38 H          27.2935   77.5900   -0.6098 H       1  UNL1        0.2105
     39 C          28.4681   75.3063   -5.7689 C.2     1  UNL1        0.2231
     40 C          28.9085   74.5347   -6.9851 C.3     1  UNL1        0.0946
     41 N          27.4813   74.8268   -4.9864 N.am    1  UNL1       -0.2994
     42 O          29.0019   76.3605   -5.4929 O.2     1  UNL1       -0.2751
     43 H          27.0536   73.9846   -5.2072 H       1  UNL1        0.1496
     44 C          25.1005   76.4342   -0.0981 C.3     1  UNL1        0.1693
     45 O          24.8673   77.7895   -0.4871 O.3     1  UNL1       -0.3794
     46 H          24.5328   78.3517    0.2249 H       1  UNL1        0.2105
@<TRIPOS>BOND
     1    29    30    1
     2    30    41    1
     3    30    31    1
     4    31    34    1
     5    31    32    1
     6    32    35    1
     7    32    33    1
     8    33    36    1
     9    33    44    1
    10    39    40    1
    11    39    42    2
    12    39    41   am
    13    41    43    1
    14    29    28    1
    15    34    37    1
    16    35    38    1
    17    29    36    1
    18    44    45    1
    19    45    46    1
    20    15     6    1
    21    15    16   ar
    22    16    21    2
    23    16    17   ar
    24    17    23    1
    25    17    18   ar
    26    18    19   ar
    27    19    20   ar
    28    15    20   ar
    29    18    22    2
    30     6     7    1
    31     6    11    1
    32     7     9    1
    33     7     8    1
    34     8    13    1
    35     9    10    1
    36     9    12    1
    37    10     5    1
    38    10    11    1
    39    12    14    1
    40     5     4    1
    41     4     1    1
    42     1     2    1
    43     1    24    1
    44     1     3    2
    45    24    25    1
    46    28    25    1
    47    25    26    1
    48    25    27    2
@<TRIPOS>MOLECULE
UD2
 46 48 0 0 0
SMALL
GASTEIGER

@<TRIPOS>ATOM
      1 P          21.8897   70.7261   -0.5833 P.3     1  UNL1        0.2189
      2 O          21.6156   69.4832    0.4022 O.3     1  UNL1       -0.4371
      3 O          22.9563   70.3686   -1.5444 O.2     1  UNL1       -0.5170
      4 O          20.5400   71.0813   -1.3870 O.3     1  UNL1       -0.3112
      5 C          20.5358   71.8155   -2.6127 C.3     1  UNL1        0.1811
      6 C          18.1235   71.2444   -5.2188 C.3     1  UNL1        0.2383
      7 C          18.1342   69.9271   -4.4022 C.3     1  UNL1        0.1895
      8 O          16.8515   69.2982   -4.4319 O.3     1  UNL1       -0.3779
      9 C          18.4696   70.4307   -2.9769 C.3     1  UNL1        0.1713
     10 C          19.1256   71.8054   -3.2080 C.3     1  UNL1        0.1764
     11 O          19.1928   72.0142   -4.6276 O.3     1  UNL1       -0.3308
     12 O          17.2767   70.5690   -2.2031 O.3     1  UNL1       -0.3794
     13 H          16.8078   68.4697   -3.9355 H       1  UNL1        0.2106
     14 H          16.7912   69.7428   -2.0764 H       1  UNL1        0.2105
     15 N          18.3999   70.9773   -6.6321 N.ar    1  UNL1       -0.2551
     16 C          17.3795   70.7655   -7.4822 C.ar    1  UNL1        0.3323
     17 N          17.6041   70.5176   -8.7861 N.ar    1  UNL1       -0.2743
     18 C          18.8652   70.4797   -9.2624 C.ar    1  UNL1        0.2626
     19 C          19.9488   70.7020   -8.3789 C.ar    1  UNL1        0.0795
     20 C          19.6942   70.9524   -7.0774 C.ar    1  UNL1        0.0869
     21 O          16.2372   70.7968   -7.0667 O.2     1  UNL1       -0.2464
     22 O          19.0699   70.2559  -10.4424 O.2     1  UNL1       -0.2670
     23 H          16.8569   70.3658   -9.3852 H       1  UNL1        0.1734
     24 O          22.3515   72.0045    0.2803 O.3     1  UNL1       -0.2703
     25 P          21.7366   72.7743    1.5540 P.3     1  UNL1        0.2208
     26 O          20.6829   73.8843    1.0523 O.3     1  UNL1       -0.4371
     27 O          21.0485   71.8034    2.4326 O.2     1  UNL1       -0.5170
     28 O          22.9237   73.4916    2.3719 O.3     1  UNL1       -0.2865
     29 C          22.8251   74.8234    2.8796 C.3     1  UNL1        0.2611
     30 C          24.2081   75.3045    3.3250 C.3     1  UNL1        0.1582
     31 C          24.7087   74.4090    4.4625 C.3     1  UNL1        0.1625
     32 C          23.6894   74.4352    5.6047 C.3     1  UNL1        0.1686
     33 C          22.3260   73.9874    5.0713 C.3     1  UNL1        0.1760
     34 O          25.9673   74.8956    4.9343 O.3     1  UNL1       -0.3801
     35 O          23.5874   75.7624    6.1236 O.3     1  UNL1       -0.3794
     36 O          21.9329   74.8424    3.9958 O.3     1  UNL1       -0.3263
     37 H          26.3444   74.3743    5.6563 H       1  UNL1        0.2105
     38 H          22.9570   75.8534    6.8518 H       1  UNL1        0.2105
     39 C          26.0413   76.2109    2.0000 C.2     1  UNL1        0.2231
     40 C          26.9991   76.1339    0.8401 C.3     1  UNL1        0.0946
     41 N          25.1393   75.2290    2.1964 N.am    1  UNL1       -0.2994
     42 O          26.0813   77.1573    2.7582 O.2     1  UNL1       -0.2751
     43 H          25.1064   74.4727    1.5899 H       1  UNL1        0.1496
     44 C          21.2884   74.0679    6.1926 C.3     1  UNL1        0.1693
     45 O          20.0774   73.4388    5.7681 O.3     1  UNL1       -0.3794
     46 H          19.3733   73.4524    6.4307 H       1  UNL1        0.2105
@<TRIPOS>BOND
     1    29    30    1
     2    30    41    1
     3    30    31    1
     4    31    34    1
     5    31    32    1
     6    32    35    1
     7    32    33    1
     8    33    36    1
     9    33    44    1
    10    39    40    1
    11    39    42    2
    12    39    41   am
    13    41    43    1
    14    29    28    1
    15    34    37    1
    16    35    38    1
    17    29    36    1
    18    44    45    1
    19    45    46    1
    20    15     6    1
    21    15    16   ar
    22    16    21    2
    23    16    17   ar
    24    17    23    1
    25    17    18   ar
    26    18    19   ar
    27    19    20   ar
    28    15    20   ar
    29    18    22    2
    30     6     7    1
    31     6    11    1
    32     7     9    1
    33     7     8    1
    34     8    13    1
    35     9    10    1
    36     9    12    1
    37    10     5    1
    38    10    11    1
    39    12    14    1
    40     5     4    1
    41     4     1    1
    42     1     2    1
    43     1    24    1
    44     1     3    2
    45    24    25    1
    46    28    25    1
    47    25    26    1
    48    25    27    2
@<TRIPOS>MOLECULE
UD2
 46 48 0 0 0
SMALL
GASTEIGER

@<TRIPOS>ATOM
      1 P          21.8784   70.4534   -0.1982 P.3     1  UNL1        0.2189
      2 O          22.3667   69.0757    0.4761 O.3     1  UNL1       -0.4371
      3 O          23.0308   71.1265   -0.8367 O.2     1  UNL1       -0.5170
      4 O          20.7570   70.1385   -1.3104 O.3     1  UNL1       -0.3112
      5 C          20.8886   70.5283   -2.6787 C.3     1  UNL1        0.1811
      6 C          18.3853   70.9746   -5.2225 C.3     1  UNL1        0.2383
      7 C          18.0217   69.6263   -4.5503 C.3     1  UNL1        0.1895
      8 O          16.6113   69.4006   -4.5899 O.3     1  UNL1       -0.3779
      9 C          18.5050   69.8471   -3.0959 C.3     1  UNL1        0.1713
     10 C          19.5298   70.9919   -3.2095 C.3     1  UNL1        0.1764
     11 O          19.6388   71.3321   -4.6008 O.3     1  UNL1       -0.3308
     12 O          17.4127   70.2340   -2.2605 O.3     1  UNL1       -0.3794
     13 H          16.3342   68.5690   -4.1820 H       1  UNL1        0.2106
     14 H          16.7094   69.5736   -2.2003 H       1  UNL1        0.2105
     15 N          18.5561   70.8015   -6.6667 N.ar    1  UNL1       -0.2551
     16 C          17.4750   70.7653   -7.4660 C.ar    1  UNL1        0.3323
     17 N          17.6024   70.6071   -8.7968 N.ar    1  UNL1       -0.2743
     18 C          18.8252   70.4835   -9.3517 C.ar    1  UNL1        0.2626
     19 C          19.9719   70.5208   -8.5223 C.ar    1  UNL1        0.0795
     20 C          19.8149   70.6848   -7.1919 C.ar    1  UNL1        0.0869
     21 O          16.3662   70.8757   -6.9795 O.2     1  UNL1       -0.2464
     22 O          18.9419   70.3406  -10.5560 O.2     1  UNL1       -0.2670
     23 H          16.8124   70.5820   -9.3585 H       1  UNL1        0.1734
     24 O          21.2551   71.4141    0.9341 O.3     1  UNL1       -0.2703
     25 P          21.8884   72.3058    2.1160 P.3     1  UNL1        0.2208
     26 O          22.7665   71.3659    3.0851 O.3     1  UNL1       -0.4371
     27 O          22.7520   73.3561    1.5333 O.2     1  UNL1       -0.5170
     28 O          20.7040   72.9930    2.9631 O.3     1  UNL1       -0.2865
     29 C          20.7046   74.3760    3.3217 C.3     1  UNL1        0.2611
     30 C          21.4303   74.5576    4.6570 C.3     1  UNL1        0.1582
     31 C          20.6724   73.7946    5.7479 C.3     1  UNL1        0.1625
     32 C          19.2277   74.2992    5.7990 C.3     1  UNL1        0.1686
     33 C          18.5869   74.1275    4.4193 C.3     1  UNL1        0.1760
     34 O          21.3016   74.0187    7.0117 O.3     1  UNL1       -0.3801
     35 O          19.2169   75.6809    6.1626 O.3     1  UNL1       -0.3794
     36 O          19.3573   74.8359    3.4464 O.3     1  UNL1       -0.3263
     37 H          20.8735   73.5637    7.7499 H       1  UNL1        0.2105
     38 H          18.3317   76.0679    6.2137 H       1  UNL1        0.2105
     39 C          23.8472   74.8340    4.7978 C.2     1  UNL1        0.2231
     40 C          25.2489   74.2942    4.6869 C.3     1  UNL1        0.0946
     41 N          22.7934   74.0318    4.5486 N.am    1  UNL1       -0.2994
     42 O          23.6660   75.9920    5.1117 O.2     1  UNL1       -0.2751
     43 H          22.9378   73.1062    4.2967 H       1  UNL1        0.1496
     44 C          17.1622   74.6843    4.4461 C.3     1  UNL1        0.1693
     45 O          16.5417   74.3477    5.6887 O.3     1  UNL1       -0.3794
     46 H          15.6340   74.6695    5.7757 H       1  UNL1        0.2105
@<TRIPOS>BOND
     1    29    30    1
     2    30    41    1
     3    30    31    1
     4    31    34    1
     5    31    32    1
     6    32    35    1
     7    32    33    1
     8    33    36    1
     9    33    44    1
    10    39    40    1
    11    39    42    2
    12    39    41   am
    13    41    43    1
    14    29    28    1
    15    34    37    1
    16    35    38    1
    17    29    36    1
    18    44    45    1
    19    45    46    1
    20    15     6    1
    21    15    16   ar
    22    16    21    2
    23    16    17   ar
    24    17    23    1
    25    17    18   ar
    26    18    19   ar
    27    19    20   ar
    28    15    20   ar
    29    18    22    2
    30     6     7    1
    31     6    11    1
    32     7     9    1
    33     7     8    1
    34     8    13    1
    35     9    10    1
    36     9    12    1
    37    10     5    1
    38    10    11    1
    39    12    14    1
    40     5     4    1
    41     4     1    1
    42     1     2    1
    43     1    24    1
    44     1     3    2
    45    24    25    1
    46    28    25    1
    47    25    26    1
    48    25    27    2
@<TRIPOS>MOLECULE
UD2
 46 48 0 0 0
SMALL
GASTEIGER

@<TRIPOS>ATOM
      1 P          22.2913   70.5984   -0.1303 P.3     1  UNL1        0.2189
      2 O          23.7594   69.9382   -0.1406 O.3     1  UNL1       -0.4371
      3 O          21.3107   69.6144    0.3787 O.2     1  UNL1       -0.5170
      4 O          22.2934   71.8965    0.8229 O.3     1  UNL1       -0.3112
      5 C          21.3641   72.0763    1.8931 C.3     1  UNL1        0.1811
      6 C          23.7148   73.9882    3.8310 C.3     1  UNL1        0.2383
      7 C          22.3564   74.7007    4.0525 C.3     1  UNL1        0.1895
      8 O          22.3014   75.3028    5.3472 O.3     1  UNL1       -0.3779
      9 C          21.3522   73.5270    3.9461 C.3     1  UNL1        0.1713
     10 C          22.1230   72.4411    3.1714 C.3     1  UNL1        0.1764
     11 O          23.4096   72.9857    2.8373 O.3     1  UNL1       -0.3308
     12 O          20.9955   73.0561    5.2468 O.3     1  UNL1       -0.3794
     13 H          21.4709   75.7616    5.5330 H       1  UNL1        0.2106
     14 H          20.5595   73.7183    5.7998 H       1  UNL1        0.2105
     15 N          24.7148   74.9303    3.3238 N.ar    1  UNL1       -0.2551
     16 C          25.5854   75.5008    4.1755 C.ar    1  UNL1        0.3323
     17 N          26.5148   76.3703    3.7370 N.ar    1  UNL1       -0.2743
     18 C          26.5878   76.6826    2.4272 C.ar    1  UNL1        0.2626
     19 C          25.6783   76.0888    1.5193 C.ar    1  UNL1        0.0795
     20 C          24.7595   75.2172    1.9859 C.ar    1  UNL1        0.0869
     21 O          25.5314   75.2283    5.3592 O.2     1  UNL1       -0.2464
     22 O          27.4288   77.4692    2.0290 O.2     1  UNL1       -0.2670
     23 H          27.1341   76.7735    4.3648 H       1  UNL1        0.1734
     24 O          21.8877   71.0335   -1.6274 O.3     1  UNL1       -0.2703
     25 P          22.7267   71.4968   -2.9214 P.3     1  UNL1        0.2208
     26 O          23.3745   72.9461   -2.6497 O.3     1  UNL1       -0.4371
     27 O          23.8034   70.5180   -3.1879 O.2     1  UNL1       -0.5170
     28 O          21.7462   71.5772   -4.1960 O.3     1  UNL1       -0.2865
     29 C          20.9121   72.7052   -4.4666 C.3     1  UNL1        0.2611
     30 C          19.5090   72.2244   -4.8447 C.3     1  UNL1        0.1582
     31 C          19.5928   71.3898   -6.1264 C.3     1  UNL1        0.1625
     32 C          20.2346   72.2336   -7.2312 C.3     1  UNL1        0.1686
     33 C          21.6101   72.7140   -6.7610 C.3     1  UNL1        0.1760
     34 O          18.2779   70.9980   -6.5276 O.3     1  UNL1       -0.3801
     35 O          19.4048   73.3618   -7.5135 O.3     1  UNL1       -0.3794
     36 O          21.4647   73.4570   -5.5490 O.3     1  UNL1       -0.3263
     37 H          18.2557   70.4647   -7.3339 H       1  UNL1        0.2105
     38 H          19.7514   73.9425   -8.2054 H       1  UNL1        0.2105
     39 C          19.1628   70.0704   -3.7594 C.2     1  UNL1        0.2231
     40 C          18.6035   69.2255   -2.6449 C.3     1  UNL1        0.0946
     41 N          18.9644   71.4033   -3.7604 N.am    1  UNL1       -0.2994
     42 O          19.7926   69.5510   -4.6571 O.2     1  UNL1       -0.2751
     43 H          18.4602   71.8188   -3.0434 H       1  UNL1        0.1496
     44 C          22.2329   73.6072   -7.8356 C.3     1  UNL1        0.1693
     45 O          21.9335   73.0774   -9.1286 O.3     1  UNL1       -0.3794
     46 H          22.2979   73.5943   -9.8601 H       1  UNL1        0.2105
@<TRIPOS>BOND
     1    29    30    1
     2    30    41    1
     3    30    31    1
     4    31    34    1
     5    31    32    1
     6    32    35    1
     7    32    33    1
     8    33    36    1
     9    33    44    1
    10    39    40    1
    11    39    42    2
    12    39    41   am
    13    41    43    1
    14    29    28    1
    15    34    37    1
    16    35    38    1
    17    29    36    1
    18    44    45    1
    19    45    46    1
    20    15     6    1
    21    15    16   ar
    22    16    21    2
    23    16    17   ar
    24    17    23    1
    25    17    18   ar
    26    18    19   ar
    27    19    20   ar
    28    15    20   ar
    29    18    22    2
    30     6     7    1
    31     6    11    1
    32     7     9    1
    33     7     8    1
    34     8    13    1
    35     9    10    1
    36     9    12    1
    37    10     5    1
    38    10    11    1
    39    12    14    1
    40     5     4    1
    41     4     1    1
    42     1     2    1
    43     1    24    1
    44     1     3    2
    45    24    25    1
    46    28    25    1
    47    25    26    1
    48    25    27    2
@<TRIPOS>MOLECULE
UD2
 46 48 0 0 0
SMALL
GASTEIGER

@<TRIPOS>ATOM
      1 P          21.9558   70.3388   -0.1809 P.3     1  UNL1        0.2189
      2 O          23.1006   69.2496    0.1260 O.3     1  UNL1       -0.4371
      3 O          20.8740   69.7094   -0.9699 O.2     1  UNL1       -0.5170
      4 O          21.3555   70.8920    1.2074 O.3     1  UNL1       -0.3112
      5 C          21.3065   72.2821    1.5338 C.3     1  UNL1        0.1811
      6 C          23.5081   73.8315    3.9189 C.3     1  UNL1        0.2383
      7 C          22.2081   74.6728    3.9847 C.3     1  UNL1        0.1895
      8 O          22.0145   75.2110    5.2941 O.3     1  UNL1       -0.3779
      9 C          21.1221   73.6199    3.6541 C.3     1  UNL1        0.1713
     10 C          21.8926   72.4986    2.9312 C.3     1  UNL1        0.1764
     11 O          23.2622   72.9190    2.8270 O.3     1  UNL1       -0.3308
     12 O          20.5260   73.1244    4.8541 O.3     1  UNL1       -0.3794
     13 H          21.2144   75.7458    5.3856 H       1  UNL1        0.2106
     14 H          20.0773   73.8005    5.3795 H       1  UNL1        0.2105
     15 N          24.6614   74.6861    3.6279 N.ar    1  UNL1       -0.2551
     16 C          24.7841   75.2486    2.4124 C.ar    1  UNL1        0.3323
     17 N          25.8337   76.0382    2.1172 N.ar    1  UNL1       -0.2743
     18 C          26.7833   76.2795    3.0438 C.ar    1  UNL1        0.2626
     19 C          26.6662   75.6946    4.3277 C.ar    1  UNL1        0.0795
     20 C          25.6013   74.9107    4.5975 C.ar    1  UNL1        0.0869
     21 O          23.9353   75.0399    1.5672 O.2     1  UNL1       -0.2464
     22 O          27.7335   76.9942    2.7781 O.2     1  UNL1       -0.2670
     23 H          25.9074   76.4349    1.2356 H       1  UNL1        0.1734
     24 O          22.5882   71.5616   -1.0164 O.3     1  UNL1       -0.2703
     25 P          22.7193   71.8930   -2.5868 P.3     1  UNL1        0.2208
     26 O          23.5682   73.2479   -2.7798 O.3     1  UNL1       -0.4371
     27 O          23.4094   70.7775   -3.2707 O.2     1  UNL1       -0.5170
     28 O          21.2509   72.0846   -3.2191 O.3     1  UNL1       -0.2865
     29 C          20.9410   71.7683   -4.5775 C.3     1  UNL1        0.2611
     30 C          20.1693   72.9293   -5.2095 C.3     1  UNL1        0.1582
     31 C          18.8455   73.1179   -4.4622 C.3     1  UNL1        0.1625
     32 C          18.0570   71.8061   -4.5034 C.3     1  UNL1        0.1686
     33 C          18.9103   70.6882   -3.8984 C.3     1  UNL1        0.1760
     34 O          18.0854   74.1521   -5.0916 O.3     1  UNL1       -0.3801
     35 O          17.7368   71.4836   -5.8579 O.3     1  UNL1       -0.3794
     36 O          20.1395   70.5859   -4.6199 O.3     1  UNL1       -0.3263
     37 H          17.2332   74.3259   -4.6690 H       1  UNL1        0.2105
     38 H          17.2366   70.6618   -5.9595 H       1  UNL1        0.2105
     39 C          20.7915   74.9917   -4.0706 C.2     1  UNL1        0.2231
     40 C          21.6093   76.2525   -3.9708 C.3     1  UNL1        0.0946
     41 N          20.9650   74.1557   -5.1132 N.am    1  UNL1       -0.2994
     42 O          19.9757   74.7280   -3.2120 O.2     1  UNL1       -0.2751
     43 H          21.6165   74.3666   -5.8004 H       1  UNL1        0.1496
     44 C          18.1528   69.3622   -3.9901 C.3     1  UNL1        0.1693
     45 O          16.7506   69.6198   -4.0895 O.3     1  UNL1       -0.3794
     46 H          16.2071   68.8224   -4.1513 H       1  UNL1        0.2105
@<TRIPOS>BOND
     1    29    30    1
     2    30    41    1
     3    30    31    1
     4    31    34    1
     5    31    32    1
     6    32    35    1
     7    32    33    1
     8    33    36    1
     9    33    44    1
    10    39    40    1
    11    39    42    2
    12    39    41   am
    13    41    43    1
    14    29    28    1
    15    34    37    1
    16    35    38    1
    17    29    36    1
    18    44    45    1
    19    45    46    1
    20    15     6    1
    21    15    16   ar
    22    16    21    2
    23    16    17   ar
    24    17    23    1
    25    17    18   ar
    26    18    19   ar
    27    19    20   ar
    28    15    20   ar
    29    18    22    2
    30     6     7    1
    31     6    11    1
    32     7     9    1
    33     7     8    1
    34     8    13    1
    35     9    10    1
    36     9    12    1
    37    10     5    1
    38    10    11    1
    39    12    14    1
    40     5     4    1
    41     4     1    1
    42     1     2    1
    43     1    24    1
    44     1     3    2
    45    24    25    1
    46    28    25    1
    47    25    26    1
    48    25    27    2
@<TRIPOS>MOLECULE
UD2
 46 48 0 0 0
SMALL
GASTEIGER

@<TRIPOS>ATOM
      1 P          21.8629   70.7939   -0.5172 P.3     1  UNL1        0.2189
      2 O          21.4890   69.6121    0.5098 O.3     1  UNL1       -0.4371
      3 O          22.9211   70.3292   -1.4408 O.2     1  UNL1       -0.5170
      4 O          20.5548   71.2039   -1.3625 O.3     1  UNL1       -0.3112
      5 C          20.6126   71.6356   -2.7233 C.3     1  UNL1        0.1811
      6 C          18.1577   71.1766   -5.3116 C.3     1  UNL1        0.2383
      7 C          18.1318   69.8502   -4.5103 C.3     1  UNL1        0.1895
      8 O          16.8284   69.2650   -4.5345 O.3     1  UNL1       -0.3779
      9 C          18.4975   70.3253   -3.0827 C.3     1  UNL1        0.1713
     10 C          19.1972   71.6799   -3.3045 C.3     1  UNL1        0.1764
     11 O          19.2579   71.9031   -4.7222 O.3     1  UNL1       -0.3308
     12 O          17.3175   70.4944   -2.2956 O.3     1  UNL1       -0.3794
     13 H          16.7616   68.4327   -4.0472 H       1  UNL1        0.2106
     14 H          16.8057   69.6835   -2.1735 H       1  UNL1        0.2105
     15 N          18.4113   70.9172   -6.7305 N.ar    1  UNL1       -0.2551
     16 C          17.3763   70.7496   -7.5728 C.ar    1  UNL1        0.3323
     17 N          17.5800   70.5098   -8.8816 N.ar    1  UNL1       -0.2743
     18 C          18.8344   70.4354   -9.3708 C.ar    1  UNL1        0.2626
     19 C          19.9333   70.6108   -8.4957 C.ar    1  UNL1        0.0795
     20 C          19.6997   70.8543   -7.1890 C.ar    1  UNL1        0.0869
     21 O          16.2397   70.8142   -7.1456 O.2     1  UNL1       -0.2464
     22 O          19.0202   70.2188  -10.5554 O.2     1  UNL1       -0.2670
     23 H          16.8224   70.3902   -9.4749 H       1  UNL1        0.1734
     24 O          22.3919   72.0730    0.3057 O.3     1  UNL1       -0.2703
     25 P          21.9065   73.6036    0.4261 P.3     1  UNL1        0.2208
     26 O          20.3077   73.6749    0.2453 O.3     1  UNL1       -0.4371
     27 O          22.2760   74.1355    1.7562 O.2     1  UNL1       -0.5170
     28 O          22.6164   74.4835   -0.7204 O.3     1  UNL1       -0.2865
     29 C          23.7723   74.0435   -1.4356 C.3     1  UNL1        0.2611
     30 C          24.7716   75.1971   -1.5515 C.3     1  UNL1        0.1582
     31 C          24.1335   76.3352   -2.3539 C.3     1  UNL1        0.1625
     32 C          23.7022   75.8011   -3.7225 C.3     1  UNL1        0.1686
     33 C          22.7438   74.6240   -3.5228 C.3     1  UNL1        0.1760
     34 O          25.0854   77.3870   -2.5300 O.3     1  UNL1       -0.3801
     35 O          24.8522   75.3635   -4.4486 O.3     1  UNL1       -0.3794
     36 O          23.3880   73.6143   -2.7434 O.3     1  UNL1       -0.3263
     37 H          24.7479   78.1426   -3.0302 H       1  UNL1        0.2105
     38 H          24.6529   75.0111   -5.3273 H       1  UNL1        0.2105
     39 C          26.4143   75.7612    0.1576 C.2     1  UNL1        0.2231
     40 C          26.7745   76.2558    1.5339 C.3     1  UNL1        0.0946
     41 N          25.1212   75.6781   -0.2125 N.am    1  UNL1       -0.2994
     42 O          27.2886   75.4371   -0.6188 O.2     1  UNL1       -0.2751
     43 H          24.4218   75.9361    0.4083 H       1  UNL1        0.1496
     44 C          22.3549   74.0465   -4.8851 C.3     1  UNL1        0.1693
     45 O          23.1647   72.9034   -5.1675 O.3     1  UNL1       -0.3794
     46 H          22.9725   72.4849   -6.0178 H       1  UNL1        0.2105
@<TRIPOS>BOND
     1    29    30    1
     2    30    41    1
     3    30    31    1
     4    31    34    1
     5    31    32    1
     6    32    35    1
     7    32    33    1
     8    33    36    1
     9    33    44    1
    10    39    40    1
    11    39    42    2
    12    39    41   am
    13    41    43    1
    14    29    28    1
    15    34    37    1
    16    35    38    1
    17    29    36    1
    18    44    45    1
    19    45    46    1
    20    15     6    1
    21    15    16   ar
    22    16    21    2
    23    16    17   ar
    24    17    23    1
    25    17    18   ar
    26    18    19   ar
    27    19    20   ar
    28    15    20   ar
    29    18    22    2
    30     6     7    1
    31     6    11    1
    32     7     9    1
    33     7     8    1
    34     8    13    1
    35     9    10    1
    36     9    12    1
    37    10     5    1
    38    10    11    1
    39    12    14    1
    40     5     4    1
    41     4     1    1
    42     1     2    1
    43     1    24    1
    44     1     3    2
    45    24    25    1
    46    28    25    1
    47    25    26    1
    48    25    27    2
@<TRIPOS>MOLECULE
UD2
 46 48 0 0 0
SMALL
GASTEIGER

@<TRIPOS>ATOM
      1 P          22.7575   71.9430   -3.2192 P.3     1  UNL1        0.2189
      2 O          22.9748   72.6122   -1.7713 O.3     1  UNL1       -0.4371
      3 O          23.4071   70.6141   -3.2517 O.2     1  UNL1       -0.5170
      4 O          21.1808   71.7768   -3.5022 O.3     1  UNL1       -0.3112
      5 C          20.1758   72.2488   -2.6029 C.3     1  UNL1        0.1811
      6 C          17.9358   71.3919   -5.2833 C.3     1  UNL1        0.2383
      7 C          18.0007   70.1155   -4.4066 C.3     1  UNL1        0.1895
      8 O          16.7684   69.3944   -4.4635 O.3     1  UNL1       -0.3779
      9 C          18.2319   70.7033   -2.9929 C.3     1  UNL1        0.1713
     10 C          18.7996   72.1107   -3.2586 C.3     1  UNL1        0.1764
     11 O          18.9190   72.2622   -4.6820 O.3     1  UNL1       -0.3308
     12 O          16.9970   70.7880   -2.2797 O.3     1  UNL1       -0.3794
     13 H          16.7598   68.5873   -3.9315 H       1  UNL1        0.2106
     14 H          16.5656   69.9350   -2.1362 H       1  UNL1        0.2105
     15 N          18.2968   71.0848   -6.6691 N.ar    1  UNL1       -0.2551
     16 C          17.3319   70.8000   -7.5617 C.ar    1  UNL1        0.3323
     17 N          17.6348   70.5139   -8.8417 N.ar    1  UNL1       -0.2743
     18 C          18.9198   70.5105   -9.2507 C.ar    1  UNL1        0.2626
     19 C          19.9456   70.8094   -8.3220 C.ar    1  UNL1        0.0795
     20 C          19.6128   71.0968   -7.0460 C.ar    1  UNL1        0.0869
     21 O          16.1689   70.7996   -7.2070 O.2     1  UNL1       -0.2464
     22 O          19.1953   70.2520  -10.4091 O.2     1  UNL1       -0.2670
     23 H          16.9269   70.3096   -9.4721 H       1  UNL1        0.1734
     24 O          23.4084   72.8867   -4.3501 O.3     1  UNL1       -0.2703
     25 P          23.2580   74.4447   -4.7284 P.3     1  UNL1        0.2208
     26 O          22.8940   74.5843   -6.2910 O.3     1  UNL1       -0.4371
     27 O          22.1794   75.0481   -3.9155 O.2     1  UNL1       -0.5170
     28 O          24.6453   75.2056   -4.4301 O.3     1  UNL1       -0.2865
     29 C          25.5234   74.8347   -3.3658 C.3     1  UNL1        0.2611
     30 C          25.6801   76.0108   -2.3989 C.3     1  UNL1        0.1582
     31 C          26.3198   77.1886   -3.1406 C.3     1  UNL1        0.1625
     32 C          27.6595   76.7396   -3.7304 C.3     1  UNL1        0.1686
     33 C          27.4264   75.5351   -4.6463 C.3     1  UNL1        0.1760
     34 O          26.5373   78.2663   -2.2271 O.3     1  UNL1       -0.3801
     35 O          28.5475   76.3717   -2.6733 O.3     1  UNL1       -0.3794
     36 O          26.8014   74.4871   -3.9025 O.3     1  UNL1       -0.3263
     37 H          26.9402   79.0477   -2.6301 H       1  UNL1        0.2105
     38 H          29.4176   76.0753   -2.9749 H       1  UNL1        0.2105
     39 C          23.9175   75.9200   -0.7188 C.2     1  UNL1        0.2231
     40 C          22.5642   76.3275   -0.1982 C.3     1  UNL1        0.0946
     41 N          24.3634   76.4075   -1.8934 N.am    1  UNL1       -0.2994
     42 O          24.6072   75.1524   -0.0805 O.2     1  UNL1       -0.2751
     43 H          23.8120   77.0204   -2.4044 H       1  UNL1        0.1496
     44 C          28.7679   75.0431   -5.1928 C.3     1  UNL1        0.1693
     45 O          29.3113   74.0599   -4.3094 O.3     1  UNL1       -0.3794
     46 H          30.1637   73.7029   -4.5939 H       1  UNL1        0.2105
@<TRIPOS>BOND
     1    29    30    1
     2    30    41    1
     3    30    31    1
     4    31    34    1
     5    31    32    1
     6    32    35    1
     7    32    33    1
     8    33    36    1
     9    33    44    1
    10    39    40    1
    11    39    42    2
    12    39    41   am
    13    41    43    1
    14    29    28    1
    15    34    37    1
    16    35    38    1
    17    29    36    1
    18    44    45    1
    19    45    46    1
    20    15     6    1
    21    15    16   ar
    22    16    21    2
    23    16    17   ar
    24    17    23    1
    25    17    18   ar
    26    18    19   ar
    27    19    20   ar
    28    15    20   ar
    29    18    22    2
    30     6     7    1
    31     6    11    1
    32     7     9    1
    33     7     8    1
    34     8    13    1
    35     9    10    1
    36     9    12    1
    37    10     5    1
    38    10    11    1
    39    12    14    1
    40     5     4    1
    41     4     1    1
    42     1     2    1
    43     1    24    1
    44     1     3    2
    45    24    25    1
    46    28    25    1
    47    25    26    1
    48    25    27    2
@<TRIPOS>MOLECULE
UD2
 46 48 0 0 0
SMALL
GASTEIGER

@<TRIPOS>ATOM
      1 P          23.0996   72.7835   -3.9291 P.3     1  UNL1        0.2189
      2 O          24.3357   73.7863   -3.6885 O.3     1  UNL1       -0.4371
      3 O          23.5191   71.3991   -3.6186 O.2     1  UNL1       -0.5170
      4 O          21.8753   73.2013   -2.9699 O.3     1  UNL1       -0.3112
      5 C          22.0633   73.7819   -1.6779 C.3     1  UNL1        0.1811
      6 C          22.9939   72.2657    1.4481 C.3     1  UNL1        0.2383
      7 C          21.8906   71.3382    0.8782 C.3     1  UNL1        0.1895
      8 O          22.0984   69.9858    1.2899 O.3     1  UNL1       -0.3779
      9 C          22.0961   71.4885   -0.6490 C.3     1  UNL1        0.1713
     10 C          22.8613   72.8174   -0.7970 C.3     1  UNL1        0.1764
     11 O          23.0152   73.3714    0.5194 O.3     1  UNL1       -0.3308
     12 O          22.8744   70.4035   -1.1568 O.3     1  UNL1       -0.3794
     13 H          21.4333   69.3670    0.9590 H       1  UNL1        0.2106
     14 H          22.4663   69.5355   -1.0364 H       1  UNL1        0.2105
     15 N          22.6370   72.7267    2.7916 N.ar    1  UNL1       -0.2551
     16 C          21.3748   72.5812    3.2327 C.ar    1  UNL1        0.3323
     17 N          21.0187   72.9959    4.4629 N.ar    1  UNL1       -0.2743
     18 C          21.9301   73.5658    5.2773 C.ar    1  UNL1        0.2626
     19 C          23.2626   73.7243    4.8263 C.ar    1  UNL1        0.0795
     20 C          23.5926   73.2956    3.5898 C.ar    1  UNL1        0.0869
     21 O          20.5426   72.0688    2.5093 O.2     1  UNL1       -0.2464
     22 O          21.6091   73.9412    6.3911 O.2     1  UNL1       -0.2670
     23 H          20.1040   72.8845    4.7648 H       1  UNL1        0.1734
     24 O          22.6294   72.8701   -5.4668 O.3     1  UNL1       -0.2703
     25 P          21.2211   73.1641   -6.1903 P.3     1  UNL1        0.2208
     26 O          20.8914   74.7380   -6.1023 O.3     1  UNL1       -0.4371
     27 O          21.3008   72.7560   -7.6100 O.2     1  UNL1       -0.5170
     28 O          20.0562   72.3295   -5.4561 O.3     1  UNL1       -0.2865
     29 C          19.3672   71.2429   -6.0773 C.3     1  UNL1        0.2611
     30 C          17.8754   71.5716   -6.1735 C.3     1  UNL1        0.1582
     31 C          17.3057   71.7370   -4.7612 C.3     1  UNL1        0.1625
     32 C          17.5677   70.4566   -3.9635 C.3     1  UNL1        0.1686
     33 C          19.0718   70.1708   -3.9525 C.3     1  UNL1        0.1760
     34 O          15.8978   71.9716   -4.8390 O.3     1  UNL1       -0.3801
     35 O          16.8780   69.3642   -4.5736 O.3     1  UNL1       -0.3794
     36 O          19.5436   70.0589   -5.2967 O.3     1  UNL1       -0.3263
     37 H          15.4706   72.0867   -3.9791 H       1  UNL1        0.2105
     38 H          17.0001   68.5184   -4.1200 H       1  UNL1        0.2105
     39 C          16.6870   72.9327   -7.8084 C.2     1  UNL1        0.2231
     40 C          16.5020   74.2136   -8.5789 C.3     1  UNL1        0.0946
     41 N          17.6963   72.8178   -6.9228 N.am    1  UNL1       -0.2994
     42 O          15.9272   72.0034   -7.9848 O.2     1  UNL1       -0.2751
     43 H          18.3046   73.5602   -6.7821 H       1  UNL1        0.1496
     44 C          19.3363   68.8608   -3.2080 C.3     1  UNL1        0.1693
     45 O          18.2210   68.5556   -2.3683 O.3     1  UNL1       -0.3794
     46 H          18.3197   67.7361   -1.8647 H       1  UNL1        0.2105
@<TRIPOS>BOND
     1    29    30    1
     2    30    41    1
     3    30    31    1
     4    31    34    1
     5    31    32    1
     6    32    35    1
     7    32    33    1
     8    33    36    1
     9    33    44    1
    10    39    40    1
    11    39    42    2
    12    39    41   am
    13    41    43    1
    14    29    28    1
    15    34    37    1
    16    35    38    1
    17    29    36    1
    18    44    45    1
    19    45    46    1
    20    15     6    1
    21    15    16   ar
    22    16    21    2
    23    16    17   ar
    24    17    23    1
    25    17    18   ar
    26    18    19   ar
    27    19    20   ar
    28    15    20   ar
    29    18    22    2
    30     6     7    1
    31     6    11    1
    32     7     9    1
    33     7     8    1
    34     8    13    1
    35     9    10    1
    36     9    12    1
    37    10     5    1
    38    10    11    1
    39    12    14    1
    40     5     4    1
    41     4     1    1
    42     1     2    1
    43     1    24    1
    44     1     3    2
    45    24    25    1
    46    28    25    1
    47    25    26    1
    48    25    27    2
@<TRIPOS>MOLECULE
UD2
 46 48 0 0 0
SMALL
GASTEIGER

@<TRIPOS>ATOM
      1 P          20.4022   72.6867   -5.3067 P.3     1  UNL1        0.2189
      2 O          21.0157   73.2198   -6.6962 O.3     1  UNL1       -0.4371
      3 O          20.0395   73.8390   -4.4526 O.2     1  UNL1       -0.5170
      4 O          19.0882   71.8042   -5.6039 O.3     1  UNL1       -0.3112
      5 C          19.0606   70.7527   -6.5710 C.3     1  UNL1        0.1811
      6 C          16.8555   72.9459   -8.3777 C.3     1  UNL1        0.2383
      7 C          18.1913   73.0043   -9.1614 C.3     1  UNL1        0.1895
      8 O          17.9571   73.2328  -10.5523 O.3     1  UNL1       -0.3779
      9 C          18.7699   71.5878   -8.9241 C.3     1  UNL1        0.1713
     10 C          18.0408   71.0899   -7.6615 C.3     1  UNL1        0.1764
     11 O          17.1824   72.1521   -7.2163 O.3     1  UNL1       -0.3308
     12 O          18.4817   70.7385  -10.0362 O.3     1  UNL1       -0.3794
     13 H          18.7627   73.2780  -11.0849 H       1  UNL1        0.2106
     14 H          18.8674   71.0375  -10.8706 H       1  UNL1        0.2105
     15 N          16.4308   74.2903   -7.9813 N.ar    1  UNL1       -0.2551
     16 C          15.2532   74.7726   -8.4166 C.ar    1  UNL1        0.3323
     17 N          14.8378   76.0048   -8.0682 N.ar    1  UNL1       -0.2743
     18 C          15.6018   76.7782   -7.2703 C.ar    1  UNL1        0.2626
     19 C          16.8433   76.2829   -6.8040 C.ar    1  UNL1        0.0795
     20 C          17.2328   75.0423   -7.1656 C.ar    1  UNL1        0.0869
     21 O          14.5539   74.0862   -9.1364 O.2     1  UNL1       -0.2464
     22 O          15.2269   77.8935   -6.9540 O.2     1  UNL1       -0.2670
     23 H          13.9865   76.3376   -8.3919 H       1  UNL1        0.1734
     24 O          21.4966   71.7801   -4.5492 O.3     1  UNL1       -0.2703
     25 P          22.7414   72.1060   -3.5812 P.3     1  UNL1        0.2208
     26 O          23.4976   70.7360   -3.2005 O.3     1  UNL1       -0.4371
     27 O          23.6827   73.0118   -4.2754 O.2     1  UNL1       -0.5170
     28 O          22.2057   72.8148   -2.2383 O.3     1  UNL1       -0.2865
     29 C          21.0932   72.3226   -1.4889 C.3     1  UNL1        0.2611
     30 C          20.5631   73.4294   -0.5743 C.3     1  UNL1        0.1582
     31 C          21.6573   73.8240    0.4225 C.3     1  UNL1        0.1625
     32 C          22.0914   72.5820    1.2057 C.3     1  UNL1        0.1686
     33 C          22.5628   71.5076    0.2221 C.3     1  UNL1        0.1760
     34 O          21.1467   74.8053    1.3278 O.3     1  UNL1       -0.3801
     35 O          20.9869   72.0850    1.9635 O.3     1  UNL1       -0.3794
     36 O          21.5090   71.2090   -0.6957 O.3     1  UNL1       -0.3263
     37 H          21.7880   75.1022    1.9880 H       1  UNL1        0.2105
     38 H          21.1902   71.2960    2.4852 H       1  UNL1        0.2105
     39 C          18.9354   75.0788   -1.3279 C.2     1  UNL1        0.2231
     40 C          18.5532   76.2771   -2.1566 C.3     1  UNL1        0.0946
     41 N          20.1921   74.5949   -1.3808 N.am    1  UNL1       -0.2994
     42 O          18.1117   74.5484   -0.6121 O.2     1  UNL1       -0.2751
     43 H          20.8507   75.0180   -1.9537 H       1  UNL1        0.1496
     44 C          22.9421   70.2419    0.9931 C.3     1  UNL1        0.1693
     45 O          22.0051   69.2042    0.6971 O.3     1  UNL1       -0.3794
     46 H          22.1842   68.3701    1.1525 H       1  UNL1        0.2105
@<TRIPOS>BOND
     1    29    30    1
     2    30    41    1
     3    30    31    1
     4    31    34    1
     5    31    32    1
     6    32    35    1
     7    32    33    1
     8    33    36    1
     9    33    44    1
    10    39    40    1
    11    39    42    2
    12    39    41   am
    13    41    43    1
    14    29    28    1
    15    34    37    1
    16    35    38    1
    17    29    36    1
    18    44    45    1
    19    45    46    1
    20    15     6    1
    21    15    16   ar
    22    16    21    2
    23    16    17   ar
    24    17    23    1
    25    17    18   ar
    26    18    19   ar
    27    19    20   ar
    28    15    20   ar
    29    18    22    2
    30     6     7    1
    31     6    11    1
    32     7     9    1
    33     7     8    1
    34     8    13    1
    35     9    10    1
    36     9    12    1
    37    10     5    1
    38    10    11    1
    39    12    14    1
    40     5     4    1
    41     4     1    1
    42     1     2    1
    43     1    24    1
    44     1     3    2
    45    24    25    1
    46    28    25    1
    47    25    26    1
    48    25    27    2
@<TRIPOS>MOLECULE
UD2
 46 48 0 0 0
SMALL
GASTEIGER

@<TRIPOS>ATOM
      1 P          22.2412   71.0172   -2.3924 P.3     1  UNL1        0.2189
      2 O          23.5196   70.6112   -3.2824 O.3     1  UNL1       -0.4371
      3 O          21.5449   69.7924   -1.9406 O.2     1  UNL1       -0.5170
      4 O          22.7266   71.8625   -1.1104 O.3     1  UNL1       -0.3112
      5 C          22.5992   71.3839    0.2297 C.3     1  UNL1        0.1811
      6 C          20.6008   73.0364    2.7221 C.3     1  UNL1        0.2383
      7 C          20.9274   74.1433    1.6877 C.3     1  UNL1        0.1895
      8 O          19.8737   75.1062    1.6211 O.3     1  UNL1       -0.3779
      9 C          21.0239   73.3379    0.3689 C.3     1  UNL1        0.1713
     10 C          21.2855   71.8912    0.8295 C.3     1  UNL1        0.1764
     11 O          21.3771   71.9085    2.2629 O.3     1  UNL1       -0.3308
     12 O          19.7953   73.4182   -0.3557 O.3     1  UNL1       -0.3794
     13 H          20.0318   75.8195    0.9880 H       1  UNL1        0.2106
     14 H          19.5514   74.3156   -0.6196 H       1  UNL1        0.2105
     15 N          21.0245   73.4429    4.0638 N.ar    1  UNL1       -0.2551
     16 C          20.1258   73.9665    4.9165 C.ar    1  UNL1        0.3323
     17 N          20.4874   74.3489    6.1555 N.ar    1  UNL1       -0.2743
     18 C          21.7653   74.2095    6.5631 C.ar    1  UNL1        0.2626
     19 C          22.7216   73.6588    5.6763 C.ar    1  UNL1        0.0795
     20 C          22.3303   73.2801    4.4413 C.ar    1  UNL1        0.0869
     21 O          18.9700   74.0979    4.5626 O.2     1  UNL1       -0.2464
     22 O          22.0937   74.5548    7.6844 O.2     1  UNL1       -0.2670
     23 H          19.8270   74.7258    6.7572 H       1  UNL1        0.1734
     24 O          21.2349   71.9125   -3.2750 O.3     1  UNL1       -0.2703
     25 P          21.3743   72.7047   -4.6700 P.3     1  UNL1        0.2208
     26 O          20.9933   74.2536   -4.4473 O.3     1  UNL1       -0.4371
     27 O          22.7676   72.6052   -5.1570 O.2     1  UNL1       -0.5170
     28 O          20.3780   72.0574   -5.7567 O.3     1  UNL1       -0.2865
     29 C          19.2253   72.7367   -6.2579 C.3     1  UNL1        0.2611
     30 C          17.9613   72.0061   -5.7983 C.3     1  UNL1        0.1582
     31 C          17.9584   70.5908   -6.3841 C.3     1  UNL1        0.1625
     32 C          18.0545   70.6810   -7.9095 C.3     1  UNL1        0.1686
     33 C          19.3153   71.4628   -8.2878 C.3     1  UNL1        0.1760
     34 O          16.7463   69.9262   -6.0203 O.3     1  UNL1       -0.3801
     35 O          16.9029   71.3540   -8.4217 O.3     1  UNL1       -0.3794
     36 O          19.2692   72.7581   -7.6862 O.3     1  UNL1       -0.3263
     37 H          16.6771   69.0226   -6.3578 H       1  UNL1        0.2105
     38 H          16.8972   71.4479   -9.3845 H       1  UNL1        0.2105
     39 C          16.7767   72.0229   -3.6690 C.2     1  UNL1        0.2231
     40 C          16.7585   71.9451   -2.1649 C.3     1  UNL1        0.0946
     41 N          17.9444   71.9306   -4.3353 N.am    1  UNL1       -0.2994
     42 O          15.7396   72.1688   -4.2816 O.2     1  UNL1       -0.2751
     43 H          18.7739   71.8149   -3.8458 H       1  UNL1        0.1496
     44 C          19.3873   71.6089   -9.8090 C.3     1  UNL1        0.1693
     45 O          18.8043   70.4596  -10.4268 O.3     1  UNL1       -0.3794
     46 H          18.8153   70.4838  -11.3934 H       1  UNL1        0.2105
@<TRIPOS>BOND
     1    29    30    1
     2    30    41    1
     3    30    31    1
     4    31    34    1
     5    31    32    1
     6    32    35    1
     7    32    33    1
     8    33    36    1
     9    33    44    1
    10    39    40    1
    11    39    42    2
    12    39    41   am
    13    41    43    1
    14    29    28    1
    15    34    37    1
    16    35    38    1
    17    29    36    1
    18    44    45    1
    19    45    46    1
    20    15     6    1
    21    15    16   ar
    22    16    21    2
    23    16    17   ar
    24    17    23    1
    25    17    18   ar
    26    18    19   ar
    27    19    20   ar
    28    15    20   ar
    29    18    22    2
    30     6     7    1
    31     6    11    1
    32     7     9    1
    33     7     8    1
    34     8    13    1
    35     9    10    1
    36     9    12    1
    37    10     5    1
    38    10    11    1
    39    12    14    1
    40     5     4    1
    41     4     1    1
    42     1     2    1
    43     1    24    1
    44     1     3    2
    45    24    25    1
    46    28    25    1
    47    25    26    1
    48    25    27    2
@<TRIPOS>MOLECULE
UD2
 46 48 0 0 0
SMALL
GASTEIGER

@<TRIPOS>ATOM
      1 P          22.0568   70.4304   -0.1556 P.3     1  UNL1        0.2189
      2 O          21.2934   70.9229    1.1733 O.3     1  UNL1       -0.4371
      3 O          22.9477   69.2973    0.1779 O.2     1  UNL1       -0.5170
      4 O          20.9755   69.9584   -1.2517 O.3     1  UNL1       -0.3112
      5 C          21.0637   70.3126   -2.6331 C.3     1  UNL1        0.1811
      6 C          18.5086   70.9227   -5.0898 C.3     1  UNL1        0.2383
      7 C          18.1132   69.5705   -4.4438 C.3     1  UNL1        0.1895
      8 O          16.6946   69.3985   -4.4484 O.3     1  UNL1       -0.3779
      9 C          18.6453   69.7324   -2.9988 C.3     1  UNL1        0.1713
     10 C          19.7091   70.8410   -3.1113 C.3     1  UNL1        0.1764
     11 O          19.7917   71.2158   -4.4956 O.3     1  UNL1       -0.3308
     12 O          17.5924   70.1361   -2.1218 O.3     1  UNL1       -0.3794
     13 H          16.3978   68.5667   -4.0551 H       1  UNL1        0.2106
     14 H          16.8665   69.5008   -2.0589 H       1  UNL1        0.2105
     15 N          18.6320   70.7838   -6.5426 N.ar    1  UNL1       -0.2551
     16 C          17.5257   70.7728   -7.3073 C.ar    1  UNL1        0.3323
     17 N          17.6094   70.6464   -8.6449 N.ar    1  UNL1       -0.2743
     18 C          18.8131   70.5298   -9.2417 C.ar    1  UNL1        0.2626
     19 C          19.9859   70.5409   -8.4489 C.ar    1  UNL1        0.0795
     20 C          19.8726   70.6733   -7.1106 C.ar    1  UNL1        0.0869
     21 O          16.4337   70.8773   -6.7829 O.2     1  UNL1       -0.2464
     22 O          18.8902   70.4157  -10.4523 O.2     1  UNL1       -0.2670
     23 H          16.8017   70.6391   -9.1814 H       1  UNL1        0.1734
     24 O          22.9314   71.6433   -0.7532 O.3     1  UNL1       -0.2703
     25 P          22.7750   73.2459   -0.7416 P.3     1  UNL1        0.2208
     26 O          21.3211   73.6469   -1.3065 O.3     1  UNL1       -0.4371
     27 O          22.9207   73.7461    0.6430 O.2     1  UNL1       -0.5170
     28 O          23.9129   73.9028   -1.6724 O.3     1  UNL1       -0.2865
     29 C          23.9338   75.2899   -2.0145 C.3     1  UNL1        0.2611
     30 C          24.5165   75.4611   -3.4195 C.3     1  UNL1        0.1582
     31 C          25.9634   74.9582   -3.4276 C.3     1  UNL1        0.1625
     32 C          26.7642   75.7226   -2.3699 C.3     1  UNL1        0.1686
     33 C          26.0946   75.5412   -1.0050 C.3     1  UNL1        0.1760
     34 O          26.5391   75.1819   -4.7166 O.3     1  UNL1       -0.3801
     35 O          26.7961   77.1109   -2.7060 O.3     1  UNL1       -0.3794
     36 O          24.7430   75.9997   -1.0746 O.3     1  UNL1       -0.3263
     37 H          27.4565   74.8859   -4.7939 H       1  UNL1        0.2105
     38 H          27.2876   77.6574   -2.0769 H       1  UNL1        0.2105
     39 C          22.9774   75.3183   -5.3032 C.2     1  UNL1        0.2231
     40 C          22.1617   74.5216   -6.2873 C.3     1  UNL1        0.0946
     41 N          23.7231   74.6854   -4.3762 N.am    1  UNL1       -0.2994
     42 O          22.9635   76.5309   -5.3447 O.2     1  UNL1       -0.2751
     43 H          23.7337   73.7160   -4.3420 H       1  UNL1        0.1496
     44 C          26.8547   76.3507    0.0473 C.3     1  UNL1        0.1693
     45 O          26.2020   77.6064    0.2463 O.3     1  UNL1       -0.3794
     46 H          26.6305   78.1734    0.9019 H       1  UNL1        0.2105
@<TRIPOS>BOND
     1    29    30    1
     2    30    41    1
     3    30    31    1
     4    31    34    1
     5    31    32    1
     6    32    35    1
     7    32    33    1
     8    33    36    1
     9    33    44    1
    10    39    40    1
    11    39    42    2
    12    39    41   am
    13    41    43    1
    14    29    28    1
    15    34    37    1
    16    35    38    1
    17    29    36    1
    18    44    45    1
    19    45    46    1
    20    15     6    1
    21    15    16   ar
    22    16    21    2
    23    16    17   ar
    24    17    23    1
    25    17    18   ar
    26    18    19   ar
    27    19    20   ar
    28    15    20   ar
    29    18    22    2
    30     6     7    1
    31     6    11    1
    32     7     9    1
    33     7     8    1
    34     8    13    1
    35     9    10    1
    36     9    12    1
    37    10     5    1
    38    10    11    1
    39    12    14    1
    40     5     4    1
    41     4     1    1
    42     1     2    1
    43     1    24    1
    44     1     3    2
    45    24    25    1
    46    28    25    1
    47    25    26    1
    48    25    27    2
@<TRIPOS>MOLECULE
UD2
 46 48 0 0 0
SMALL
GASTEIGER

@<TRIPOS>ATOM
      1 P          21.6590   72.8052   -1.1656 P.3     1  UNL1        0.2189
      2 O          22.8500   71.9070   -0.5604 O.3     1  UNL1       -0.4371
      3 O          20.3646   72.1240   -0.9431 O.2     1  UNL1       -0.5170
      4 O          21.6436   74.2395   -0.4335 O.3     1  UNL1       -0.3112
      5 C          21.1928   74.4215    0.9100 C.3     1  UNL1        0.1811
      6 C          22.8722   74.0185    4.0650 C.3     1  UNL1        0.2383
      7 C          21.6460   73.0745    4.1528 C.3     1  UNL1        0.1895
      8 O          21.9326   71.9413    4.9746 O.3     1  UNL1       -0.3779
      9 C          21.4548   72.6515    2.6757 C.3     1  UNL1        0.1713
     10 C          22.1759   73.7509    1.8727 C.3     1  UNL1        0.1764
     11 O          22.6707   74.7148    2.8159 O.3     1  UNL1       -0.3308
     12 O          22.0605   71.3796    2.4386 O.3     1  UNL1       -0.3794
     13 H          21.1958   71.3214    5.0609 H       1  UNL1        0.2106
     14 H          21.6842   70.6600    2.9631 H       1  UNL1        0.2105
     15 N          22.8791   74.9608    5.1862 N.ar    1  UNL1       -0.2551
     16 C          24.0501   75.3668    5.7083 C.ar    1  UNL1        0.3323
     17 N          24.0863   76.2319    6.7390 N.ar    1  UNL1       -0.2743
     18 C          22.9399   76.7089    7.2653 C.ar    1  UNL1        0.2626
     19 C          21.7001   76.2908    6.7248 C.ar    1  UNL1        0.0795
     20 C          21.6937   75.4258    5.6888 C.ar    1  UNL1        0.0869
     21 O          25.0916   74.9451    5.2436 O.2     1  UNL1       -0.2464
     22 O          22.9713   77.4923    8.1979 O.2     1  UNL1       -0.2670
     23 H          24.9392   76.5134    7.1043 H       1  UNL1        0.1734
     24 O          21.8923   73.0123   -2.7455 O.3     1  UNL1       -0.2703
     25 P          22.8496   72.3131   -3.8353 P.3     1  UNL1        0.2208
     26 O          24.1841   73.1954   -4.0212 O.3     1  UNL1       -0.4371
     27 O          23.2163   70.9568   -3.3723 O.2     1  UNL1       -0.5170
     28 O          22.0742   72.2090   -5.2426 O.3     1  UNL1       -0.2865
     29 C          21.0934   73.1590   -5.6631 C.3     1  UNL1        0.2611
     30 C          19.8904   72.4227   -6.2576 C.3     1  UNL1        0.1582
     31 C          20.3417   71.6412   -7.4953 C.3     1  UNL1        0.1625
     32 C          20.9799   72.6111   -8.4935 C.3     1  UNL1        0.1686
     33 C          22.1413   73.3403   -7.8127 C.3     1  UNL1        0.1760
     34 O          19.2107   71.0097   -8.0996 O.3     1  UNL1       -0.3801
     35 O          20.0052   73.5625   -8.9250 O.3     1  UNL1       -0.3794
     36 O          21.6594   74.0211   -6.6524 O.3     1  UNL1       -0.3263
     37 H          19.4237   70.4954   -8.8904 H       1  UNL1        0.2105
     38 H          20.3412   74.2105   -9.5600 H       1  UNL1        0.2105
     39 C          18.0114   71.3513   -5.1355 C.2     1  UNL1        0.2231
     40 C          17.4502   70.3966   -4.1146 C.3     1  UNL1        0.0946
     41 N          19.3453   71.4941   -5.2641 N.am    1  UNL1       -0.2994
     42 O          17.2626   71.9924   -5.8429 O.2     1  UNL1       -0.2751
     43 H          19.9443   70.9824   -4.6981 H       1  UNL1        0.1496
     44 C          22.7465   74.3546   -8.7850 C.3     1  UNL1        0.1693
     45 O          23.5418   73.6697   -9.7550 O.3     1  UNL1       -0.3794
     46 H          23.9576   74.2519  -10.4054 H       1  UNL1        0.2105
@<TRIPOS>BOND
     1    29    30    1
     2    30    41    1
     3    30    31    1
     4    31    34    1
     5    31    32    1
     6    32    35    1
     7    32    33    1
     8    33    36    1
     9    33    44    1
    10    39    40    1
    11    39    42    2
    12    39    41   am
    13    41    43    1
    14    29    28    1
    15    34    37    1
    16    35    38    1
    17    29    36    1
    18    44    45    1
    19    45    46    1
    20    15     6    1
    21    15    16   ar
    22    16    21    2
    23    16    17   ar
    24    17    23    1
    25    17    18   ar
    26    18    19   ar
    27    19    20   ar
    28    15    20   ar
    29    18    22    2
    30     6     7    1
    31     6    11    1
    32     7     9    1
    33     7     8    1
    34     8    13    1
    35     9    10    1
    36     9    12    1
    37    10     5    1
    38    10    11    1
    39    12    14    1
    40     5     4    1
    41     4     1    1
    42     1     2    1
    43     1    24    1
    44     1     3    2
    45    24    25    1
    46    28    25    1
    47    25    26    1
    48    25    27    2
@<TRIPOS>MOLECULE
UD2
 46 48 0 0 0
SMALL
GASTEIGER

@<TRIPOS>ATOM
      1 P          22.8671   72.1889   -3.4663 P.3     1  UNL1        0.2189
      2 O          23.4587   70.7161   -3.1973 O.3     1  UNL1       -0.4371
      3 O          21.5873   72.3471   -2.7410 O.2     1  UNL1       -0.5170
      4 O          23.9186   73.2926   -2.9467 O.3     1  UNL1       -0.3112
      5 C          24.0928   74.5601   -3.5827 C.3     1  UNL1        0.1811
      6 C          27.5525   75.4692   -3.9576 C.3     1  UNL1        0.2383
      7 C          26.7675   76.7107   -4.4520 C.3     1  UNL1        0.1895
      8 O          27.5000   77.9113   -4.1991 O.3     1  UNL1       -0.3779
      9 C          25.4863   76.6523   -3.5845 C.3     1  UNL1        0.1713
     10 C          25.4119   75.1848   -3.1214 C.3     1  UNL1        0.1764
     11 O          26.5174   74.4904   -3.7206 O.3     1  UNL1       -0.3308
     12 O          25.6044   77.5264   -2.4608 O.3     1  UNL1       -0.3794
     13 H          27.0503   78.7157   -4.4913 H       1  UNL1        0.2106
     14 H          25.7137   78.4577   -2.6958 H       1  UNL1        0.2105
     15 N          28.4798   75.0005   -4.9898 N.ar    1  UNL1       -0.2551
     16 C          29.5894   74.3292   -4.6337 C.ar    1  UNL1        0.3323
     17 N          30.4592   73.8869   -5.5611 N.ar    1  UNL1       -0.2743
     18 C          30.2274   74.1109   -6.8705 C.ar    1  UNL1        0.2626
     19 C          29.0627   74.8154   -7.2597 C.ar    1  UNL1        0.0795
     20 C          28.2059   75.2435   -6.3089 C.ar    1  UNL1        0.0869
     21 O          29.8112   74.1198   -3.4567 O.2     1  UNL1       -0.2464
     22 O          31.0136   73.7108   -7.7109 O.2     1  UNL1       -0.2670
     23 H          31.2550   73.4056   -5.2870 H       1  UNL1        0.1734
     24 O          22.6179   72.3874   -5.0448 O.3     1  UNL1       -0.2703
     25 P          21.3879   72.9470   -5.9206 P.3     1  UNL1        0.2208
     26 O          21.2704   74.5410   -5.7229 O.3     1  UNL1       -0.4371
     27 O          21.6213   72.6437   -7.3496 O.2     1  UNL1       -0.5170
     28 O          20.0221   72.2438   -5.4384 O.3     1  UNL1       -0.2865
     29 C          19.6708   70.9038   -5.7881 C.3     1  UNL1        0.2611
     30 C          18.3057   70.8973   -6.4803 C.3     1  UNL1        0.1582
     31 C          17.2454   71.4164   -5.5042 C.3     1  UNL1        0.1625
     32 C          17.2605   70.5493   -4.2423 C.3     1  UNL1        0.1686
     33 C          18.6663   70.5694   -3.6362 C.3     1  UNL1        0.1760
     34 O          15.9562   71.3447   -6.1175 O.3     1  UNL1       -0.3801
     35 O          16.9047   69.2076   -4.5804 O.3     1  UNL1       -0.3794
     36 O          19.6078   70.1042   -4.6053 O.3     1  UNL1       -0.3263
     37 H          15.2354   71.6591   -5.5548 H       1  UNL1        0.2105
     38 H          16.8946   68.6008   -3.8269 H       1  UNL1        0.2105
     39 C          18.9009   71.3153   -8.8059 C.2     1  UNL1        0.2231
     40 C          18.9480   72.2060  -10.0196 C.3     1  UNL1        0.0946
     41 N          18.3513   71.7644   -7.6603 N.am    1  UNL1       -0.2994
     42 O          19.3581   70.1927   -8.8591 O.2     1  UNL1       -0.2751
     43 H          17.9865   72.6622   -7.6171 H       1  UNL1        0.1496
     44 C          18.7051   69.6576   -2.4083 C.3     1  UNL1        0.1693
     45 O          20.0276   69.6422   -1.8671 O.3     1  UNL1       -0.3794
     46 H          20.1265   69.0829   -1.0845 H       1  UNL1        0.2105
@<TRIPOS>BOND
     1    29    30    1
     2    30    41    1
     3    30    31    1
     4    31    34    1
     5    31    32    1
     6    32    35    1
     7    32    33    1
     8    33    36    1
     9    33    44    1
    10    39    40    1
    11    39    42    2
    12    39    41   am
    13    41    43    1
    14    29    28    1
    15    34    37    1
    16    35    38    1
    17    29    36    1
    18    44    45    1
    19    45    46    1
    20    15     6    1
    21    15    16   ar
    22    16    21    2
    23    16    17   ar
    24    17    23    1
    25    17    18   ar
    26    18    19   ar
    27    19    20   ar
    28    15    20   ar
    29    18    22    2
    30     6     7    1
    31     6    11    1
    32     7     9    1
    33     7     8    1
    34     8    13    1
    35     9    10    1
    36     9    12    1
    37    10     5    1
    38    10    11    1
    39    12    14    1
    40     5     4    1
    41     4     1    1
    42     1     2    1
    43     1    24    1
    44     1     3    2
    45    24    25    1
    46    28    25    1
    47    25    26    1
    48    25    27    2
