@<TRIPOS>MOLECULE
UDP-glaA
 43 45 0 0 0
SMALL
GASTEIGER

@<TRIPOS>ATOM
      1 P          21.7844   75.2969   -5.1976 P.3     1  UNL1        0.2189
      2 O          21.0041   76.6424   -4.7524 O.3     1  UNL1       -0.4371
      3 O          22.4431   75.3635   -6.5444 O.2     1  UNL1       -0.5170
      4 O          20.6828   74.1277   -5.0109 O.3     1  UNL1       -0.3112
      5 C          19.3116   74.4863   -4.9878 C.3     1  UNL1        0.1811
      6 O          17.8015   72.6404   -5.2824 O.3     1  UNL1       -0.3308
      7 O          18.6299   71.7669   -2.5361 O.3     1  UNL1       -0.3794
      8 O          20.0910   70.1243   -4.1495 O.3     1  UNL1       -0.3779
      9 C          19.4092   72.3827   -3.5615 C.3     1  UNL1        0.1713
     10 C          19.7131   71.3861   -4.6601 C.3     1  UNL1        0.1895
     11 C          18.5244   73.3914   -4.2820 C.3     1  UNL1        0.1764
     12 C          18.3967   71.3393   -5.4170 C.3     1  UNL1        0.2383
     13 H          18.4272   72.4513   -1.8757 H       1  UNL1        0.2105
     14 H          20.8756   70.2580   -3.5902 H       1  UNL1        0.2106
     15 O          16.3760   70.3226   -7.1078 O.2     1  UNL1       -0.2464
     16 O          19.1992   70.2629  -10.7499 O.2     1  UNL1       -0.2670
     17 N          18.5758   71.0494   -6.8110 N.ar    1  UNL1       -0.2551
     18 N          17.7833   70.2930   -8.9202 N.ar    1  UNL1       -0.2743
     19 C          17.4969   70.5407   -7.5712 C.ar    1  UNL1        0.3323
     20 C          19.8105   71.2693   -7.4116 C.ar    1  UNL1        0.0869
     21 C          20.0676   71.0286   -8.6991 C.ar    1  UNL1        0.0795
     22 C          18.9951   70.4954   -9.5624 C.ar    1  UNL1        0.2626
     23 H          17.0226   69.9264   -9.4859 H       1  UNL1        0.1734
     24 O          22.7982   75.0410   -3.9640 O.3     1  UNL1       -0.2703
     25 P          23.7100   73.7600   -3.5892 P.3     1  UNL1        0.2208
     26 O          25.2153   74.3500   -3.6349 O.3     1  UNL1       -0.4371
     27 O          23.4854   72.5650   -4.4707 O.2     1  UNL1       -0.5170
     28 O          23.4218   73.4970   -2.0234 O.3     1  UNL1       -0.2858
     29 O          21.9748   71.8357   -1.1598 O.3     1  UNL1       -0.3226
     30 O          21.9694   74.6644    1.8861 O.3     1  UNL1       -0.3794
     31 O          21.8778   75.4956   -0.9079 O.3     1  UNL1       -0.3775
     32 O          21.0159   72.0961    1.5330 O.3     1  UNL1       -0.3792
     33 C          22.4733   73.8809    0.8080 C.3     1  UNL1        0.1718
     34 C          21.6755   74.1558   -0.4711 C.3     1  UNL1        0.1968
     35 C          22.3699   72.3996    1.1817 C.3     1  UNL1        0.1723
     36 C          22.0959   73.1954   -1.5906 C.3     1  UNL1        0.2706
     37 C          22.7719   71.5393   -0.0143 C.3     1  UNL1        0.1830
     38 H          22.5011   74.4567    2.6734 H       1  UNL1        0.2105
     39 H          21.3624   75.6196   -1.7227 H       1  UNL1        0.2106
     40 H          20.4831   72.0754    0.7201 H       1  UNL1        0.2106
     41 O          23.7171   69.3951    0.0996 O.co2   1  UNL1       -0.5466
     42 O          21.4995   69.5798    0.5949 O.co2   1  UNL1       -0.5466
     43 C          22.5623   70.0846    0.2630 C.2     1  UNL1        0.0799
@<TRIPOS>UNITY_ATOM_ATTR
41 1
charge -1
@<TRIPOS>BOND
     1     1     4    1
     2     1    24    1
     3     1     2    1
     4     1     3    2
     5    25    28    1
     6    25    24    1
     7    25    26    1
     8    25    27    2
     9     6    11    1
    10     6    12    1
    11    29    36    1
    12    29    37    1
    13     7     9    1
    14     7    13    1
    15     8    10    1
    16     8    14    1
    17     4     5    1
    18    28    36    1
    19    30    33    1
    20    30    38    1
    21    31    34    1
    22    31    39    1
    23    32    35    1
    24    32    40    1
    25    41    43   ar
    26    15    19    2
    27    42    43   ar
    28    16    22    2
    29    17    12    1
    30    17    19   ar
    31    17    20   ar
    32    18    19   ar
    33    18    22   ar
    34    18    23    1
    35     9    10    1
    36     9    11    1
    37    10    12    1
    38    11     5    1
    39    33    34    1
    40    33    35    1
    41    34    36    1
    42    35    37    1
    43    37    43    1
    44    20    21   ar
    45    21    22   ar
@<TRIPOS>MOLECULE
UDP-glaA
 43 45 0 0 0
SMALL
GASTEIGER

@<TRIPOS>ATOM
      1 P          22.9757   72.0065   -3.3569 P.3     1  UNL1        0.2189
      2 O          23.7415   72.9675   -4.4093 O.3     1  UNL1       -0.4371
      3 O          23.6112   70.6632   -3.1480 O.2     1  UNL1       -0.5170
      4 O          21.4481   71.9866   -3.8877 O.3     1  UNL1       -0.3112
      5 C          20.6311   70.8760   -3.5586 C.3     1  UNL1        0.1811
      6 O          18.7793   71.9277   -4.6718 O.3     1  UNL1       -0.3308
      7 O          17.0600   70.7659   -2.5072 O.3     1  UNL1       -0.3794
      8 O          16.6360   69.0545   -4.5874 O.3     1  UNL1       -0.3779
      9 C          18.2119   70.2105   -3.1414 C.3     1  UNL1        0.1713
     10 C          17.8678   69.7444   -4.5403 C.3     1  UNL1        0.1895
     11 C          19.1903   71.3453   -3.4152 C.3     1  UNL1        0.1764
     12 C          17.8335   71.0538   -5.3099 C.3     1  UNL1        0.2383
     13 H          17.3370   71.0854   -1.6315 H       1  UNL1        0.2105
     14 H          16.7041   68.2927   -3.9863 H       1  UNL1        0.2106
     15 O          16.0265   70.4095   -7.3823 O.2     1  UNL1       -0.2464
     16 O          19.3677   70.4493  -10.5562 O.2     1  UNL1       -0.2670
     17 N          18.2037   70.8903   -6.6867 N.ar    1  UNL1       -0.2551
     18 N          17.6916   70.4292   -8.9613 N.ar    1  UNL1       -0.2743
     19 C          17.2194   70.5657   -7.6493 C.ar    1  UNL1        0.3323
     20 C          19.5301   71.0513   -7.0717 C.ar    1  UNL1        0.0869
     21 C          19.9644   70.9183   -8.3268 C.ar    1  UNL1        0.0795
     22 C          19.0005   70.5792   -9.3925 C.ar    1  UNL1        0.2626
     23 H          17.0016   70.1954   -9.6701 H       1  UNL1        0.1734
     24 O          22.8864   72.9234   -2.0278 O.3     1  UNL1       -0.2703
     25 P          22.2688   74.3992   -1.7973 P.3     1  UNL1        0.2208
     26 O          20.7686   74.2701   -2.3879 O.3     1  UNL1       -0.4371
     27 O          23.0805   75.5081   -2.4035 O.2     1  UNL1       -0.5170
     28 O          22.0705   74.5146   -0.2000 O.3     1  UNL1       -0.2858
     29 O          21.1700   72.4182    0.4272 O.3     1  UNL1       -0.3226
     30 O          21.7015   74.2743    4.1084 O.3     1  UNL1       -0.3794
     31 O          20.6816   75.7758    1.8256 O.3     1  UNL1       -0.3775
     32 O          21.0252   71.7497    3.2148 O.3     1  UNL1       -0.3792
     33 C          21.9606   73.9279    2.7508 C.3     1  UNL1        0.1718
     34 C          20.7917   74.3567    1.8574 C.3     1  UNL1        0.1968
     35 C          22.1639   72.4132    2.6563 C.3     1  UNL1        0.1723
     36 C          20.9823   73.8372    0.4270 C.3     1  UNL1        0.2706
     37 C          22.3015   72.0043    1.1914 C.3     1  UNL1        0.1830
     38 H          22.4644   73.9827    4.6363 H       1  UNL1        0.2105
     39 H          19.9368   75.9992    1.2423 H       1  UNL1        0.2106
     40 H          20.2832   71.8328    2.5922 H       1  UNL1        0.2106
     41 O          21.4024   70.0737    0.2074 O.co2   1  UNL1       -0.5466
     42 O          23.1914   69.7959    1.5927 O.co2   1  UNL1       -0.5466
     43 C          22.3723   70.5177    1.0426 C.2     1  UNL1        0.0799
@<TRIPOS>UNITY_ATOM_ATTR
41 1
charge -1
@<TRIPOS>BOND
     1     1     4    1
     2     1    24    1
     3     1     2    1
     4     1     3    2
     5    25    28    1
     6    25    24    1
     7    25    26    1
     8    25    27    2
     9     6    11    1
    10     6    12    1
    11    29    36    1
    12    29    37    1
    13     7     9    1
    14     7    13    1
    15     8    10    1
    16     8    14    1
    17     4     5    1
    18    28    36    1
    19    30    33    1
    20    30    38    1
    21    31    34    1
    22    31    39    1
    23    32    35    1
    24    32    40    1
    25    41    43   ar
    26    15    19    2
    27    42    43   ar
    28    16    22    2
    29    17    12    1
    30    17    19   ar
    31    17    20   ar
    32    18    19   ar
    33    18    22   ar
    34    18    23    1
    35     9    10    1
    36     9    11    1
    37    10    12    1
    38    11     5    1
    39    33    34    1
    40    33    35    1
    41    34    36    1
    42    35    37    1
    43    37    43    1
    44    20    21   ar
    45    21    22   ar
@<TRIPOS>MOLECULE
UDP-glaA
 43 45 0 0 0
SMALL
GASTEIGER

@<TRIPOS>ATOM
      1 P          21.9883   73.9346   -6.0208 P.3     1  UNL1        0.2189
      2 O          22.1202   75.4455   -6.5840 O.3     1  UNL1       -0.4371
      3 O          22.7842   72.9075   -6.7717 O.2     1  UNL1       -0.5170
      4 O          20.3925   73.6797   -5.9587 O.3     1  UNL1       -0.3112
      5 C          19.5692   74.2983   -6.9328 C.3     1  UNL1        0.1811
      6 O          19.5471   71.9766   -7.5521 O.3     1  UNL1       -0.3308
      7 O          17.8249   72.8024   -9.8637 O.3     1  UNL1       -0.3794
      8 O          16.0087   71.7889   -8.1002 O.3     1  UNL1       -0.3779
      9 C          17.8534   73.3129   -8.5309 C.3     1  UNL1        0.1713
     10 C          17.2044   72.3309   -7.5785 C.3     1  UNL1        0.1895
     11 C          19.3007   73.3077   -8.0568 C.3     1  UNL1        0.1764
     12 C          18.2946   71.2863   -7.4107 C.3     1  UNL1        0.2383
     13 H          18.2849   73.4452  -10.4301 H       1  UNL1        0.2105
     14 H          15.4058   72.5305   -8.2811 H       1  UNL1        0.2106
     15 O          16.3022   69.4583   -6.5957 O.2     1  UNL1       -0.2464
     16 O          18.2361   68.9186   -2.4475 O.2     1  UNL1       -0.2670
     17 N          18.2532   70.6526   -6.1238 N.ar    1  UNL1       -0.2551
     18 N          17.2663   69.1912   -4.5304 N.ar    1  UNL1       -0.2743
     19 C          17.2088   69.7505   -5.8137 C.ar    1  UNL1        0.3323
     20 C          19.2405   70.9271   -5.1839 C.ar    1  UNL1        0.0869
     21 C          19.2816   70.3853   -3.9647 C.ar    1  UNL1        0.0795
     22 C          18.2274   69.4336   -3.5613 C.ar    1  UNL1        0.2626
     23 H          16.5252   68.5401   -4.2853 H       1  UNL1        0.1734
     24 O          22.3918   74.0922   -4.4628 O.3     1  UNL1       -0.2703
     25 P          23.3966   73.2303   -3.5353 P.3     1  UNL1        0.2208
     26 O          24.8296   73.9383   -3.7831 O.3     1  UNL1       -0.4371
     27 O          23.3779   71.7544   -3.8132 O.2     1  UNL1       -0.5170
     28 O          23.0002   73.6290   -2.0227 O.3     1  UNL1       -0.2858
     29 O          21.7489   71.8559   -1.0792 O.3     1  UNL1       -0.3226
     30 O          21.7774   74.6406    2.0069 O.3     1  UNL1       -0.3794
     31 O          21.4078   75.4956   -0.7568 O.3     1  UNL1       -0.3775
     32 O          20.9872   72.0136    1.6837 O.3     1  UNL1       -0.3792
     33 C          22.2508   73.9088    0.8797 C.3     1  UNL1        0.1718
     34 C          21.3376   74.1395   -0.3291 C.3     1  UNL1        0.1968
     35 C          22.2842   72.4197    1.2344 C.3     1  UNL1        0.1723
     36 C          21.7375   73.2258   -1.4943 C.3     1  UNL1        0.2706
     37 C          22.6525   71.6053   -0.0039 C.3     1  UNL1        0.1830
     38 H          22.3826   74.4632    2.7471 H       1  UNL1        0.2105
     39 H          20.8227   75.5910   -1.5271 H       1  UNL1        0.2106
     40 H          20.3954   71.9634    0.9140 H       1  UNL1        0.2106
     41 O          23.7792   69.5495    0.0854 O.co2   1  UNL1       -0.5466
     42 O          21.5582   69.5394    0.5994 O.co2   1  UNL1       -0.5466
     43 C          22.5708   70.1360    0.2633 C.2     1  UNL1        0.0799
@<TRIPOS>UNITY_ATOM_ATTR
41 1
charge -1
@<TRIPOS>BOND
     1     1     4    1
     2     1    24    1
     3     1     2    1
     4     1     3    2
     5    25    28    1
     6    25    24    1
     7    25    26    1
     8    25    27    2
     9     6    11    1
    10     6    12    1
    11    29    36    1
    12    29    37    1
    13     7     9    1
    14     7    13    1
    15     8    10    1
    16     8    14    1
    17     4     5    1
    18    28    36    1
    19    30    33    1
    20    30    38    1
    21    31    34    1
    22    31    39    1
    23    32    35    1
    24    32    40    1
    25    41    43   ar
    26    15    19    2
    27    42    43   ar
    28    16    22    2
    29    17    12    1
    30    17    19   ar
    31    17    20   ar
    32    18    19   ar
    33    18    22   ar
    34    18    23    1
    35     9    10    1
    36     9    11    1
    37    10    12    1
    38    11     5    1
    39    33    34    1
    40    33    35    1
    41    34    36    1
    42    35    37    1
    43    37    43    1
    44    20    21   ar
    45    21    22   ar
@<TRIPOS>MOLECULE
UDP-glaA
 43 45 0 0 0
SMALL
GASTEIGER

@<TRIPOS>ATOM
      1 P          22.6844   71.4798   -2.7452 P.3     1  UNL1        0.2189
      2 O          23.0400   72.9368   -3.3519 O.3     1  UNL1       -0.4371
      3 O          23.5441   70.3575   -3.2487 O.2     1  UNL1       -0.5170
      4 O          21.0970   71.3234   -3.0121 O.3     1  UNL1       -0.3112
      5 C          20.4229   72.3552   -3.7122 C.3     1  UNL1        0.1811
      6 O          18.2740   72.3655   -4.7876 O.3     1  UNL1       -0.3308
      7 O          17.2629   70.9167   -2.3648 O.3     1  UNL1       -0.3794
      8 O          17.5573   68.9050   -4.1819 O.3     1  UNL1       -0.3779
      9 C          18.5263   70.8082   -3.0202 C.3     1  UNL1        0.1713
     10 C          18.3800   70.0450   -4.3197 C.3     1  UNL1        0.1895
     11 C          18.9230   72.1953   -3.5081 C.3     1  UNL1        0.1764
     12 C          17.7744   71.0948   -5.2359 C.3     1  UNL1        0.2383
     13 H          17.3985   71.4450   -1.5597 H       1  UNL1        0.2105
     14 H          17.9567   68.3364   -3.5012 H       1  UNL1        0.2106
     15 O          15.9781   70.3654   -7.2893 O.2     1  UNL1       -0.2464
     16 O          19.3149   70.3909  -10.4679 O.2     1  UNL1       -0.2670
     17 N          18.1464   70.9046   -6.6088 N.ar    1  UNL1       -0.2551
     18 N          17.6410   70.3781   -8.8707 N.ar    1  UNL1       -0.2743
     19 C          17.1675   70.5377   -7.5617 C.ar    1  UNL1        0.3323
     20 C          19.4691   71.0813   -6.9994 C.ar    1  UNL1        0.0869
     21 C          19.9047   70.9258   -8.2515 C.ar    1  UNL1        0.0795
     22 C          18.9464   70.5424   -9.3072 C.ar    1  UNL1        0.2626
     23 H          16.9549   70.1138   -9.5725 H       1  UNL1        0.1734
     24 O          22.7619   71.7234   -1.1484 O.3     1  UNL1       -0.2703
     25 P          22.4534   70.7333    0.0914 P.3     1  UNL1        0.2208
     26 O          23.7372   69.7495    0.1088 O.3     1  UNL1       -0.4371
     27 O          21.1316   70.0260    0.0007 O.2     1  UNL1       -0.5170
     28 O          22.6276   71.6553    1.4042 O.3     1  UNL1       -0.2858
     29 O          21.7798   72.3669    3.4957 O.3     1  UNL1       -0.3226
     30 O          21.0894   75.6923    1.0990 O.3     1  UNL1       -0.3794
     31 O          20.6192   73.0031    0.0728 O.3     1  UNL1       -0.3775
     32 O          20.9204   75.0897    3.7894 O.3     1  UNL1       -0.3792
     33 C          21.7485   74.5287    1.5907 C.3     1  UNL1        0.1718
     34 C          20.8432   73.3007    1.4469 C.3     1  UNL1        0.1968
     35 C          22.1055   74.7468    3.0635 C.3     1  UNL1        0.1723
     36 C          21.4728   72.0789    2.1275 C.3     1  UNL1        0.2706
     37 C          22.6842   73.4598    3.6474 C.3     1  UNL1        0.1830
     38 H          21.6968   76.4433    1.2119 H       1  UNL1        0.2105
     39 H          20.0508   72.2157    0.0320 H       1  UNL1        0.2106
     40 H          20.3782   74.2892    3.8913 H       1  UNL1        0.2106
     41 O          24.1801   74.0433    5.3578 O.co2   1  UNL1       -0.5466
     42 O          22.1122   73.3206    5.9890 O.co2   1  UNL1       -0.5466
     43 C          22.9273   73.5868    5.1177 C.2     1  UNL1        0.0799
@<TRIPOS>UNITY_ATOM_ATTR
41 1
charge -1
@<TRIPOS>BOND
     1     1     4    1
     2     1    24    1
     3     1     2    1
     4     1     3    2
     5    25    28    1
     6    25    24    1
     7    25    26    1
     8    25    27    2
     9     6    11    1
    10     6    12    1
    11    29    36    1
    12    29    37    1
    13     7     9    1
    14     7    13    1
    15     8    10    1
    16     8    14    1
    17     4     5    1
    18    28    36    1
    19    30    33    1
    20    30    38    1
    21    31    34    1
    22    31    39    1
    23    32    35    1
    24    32    40    1
    25    41    43   ar
    26    15    19    2
    27    42    43   ar
    28    16    22    2
    29    17    12    1
    30    17    19   ar
    31    17    20   ar
    32    18    19   ar
    33    18    22   ar
    34    18    23    1
    35     9    10    1
    36     9    11    1
    37    10    12    1
    38    11     5    1
    39    33    34    1
    40    33    35    1
    41    34    36    1
    42    35    37    1
    43    37    43    1
    44    20    21   ar
    45    21    22   ar
@<TRIPOS>MOLECULE
UDP-glaA
 43 45 0 0 0
SMALL
GASTEIGER

@<TRIPOS>ATOM
      1 P          22.2648   73.3478   -5.4666 P.3     1  UNL1        0.2189
      2 O          22.8132   74.8155   -5.8698 O.3     1  UNL1       -0.4371
      3 O          23.2131   72.5203   -4.6492 O.2     1  UNL1       -0.5170
      4 O          21.8048   72.7028   -6.8765 O.3     1  UNL1       -0.3112
      5 C          20.8950   73.4263   -7.6877 C.3     1  UNL1        0.1811
      6 O          20.0279   71.2042   -7.9788 O.3     1  UNL1       -0.3308
      7 O          18.5386   72.2963  -10.3412 O.3     1  UNL1       -0.3794
      8 O          16.6135   72.2094   -8.4119 O.3     1  UNL1       -0.3779
      9 C          18.8359   72.9219   -9.0930 C.3     1  UNL1        0.1713
     10 C          17.9565   72.3547   -7.9987 C.3     1  UNL1        0.1895
     11 C          20.2218   72.4650   -8.6570 C.3     1  UNL1        0.1764
     12 C          18.6273   71.0218   -7.7135 C.3     1  UNL1        0.2383
     13 H          19.1512   72.6621  -11.0019 H       1  UNL1        0.2105
     14 H          16.2929   73.0879   -8.6795 H       1  UNL1        0.2106
     15 O          16.2476   69.9243   -6.6609 O.2     1  UNL1       -0.2464
     16 O          18.1014   69.4583   -2.4674 O.2     1  UNL1       -0.2670
     17 N          18.4604   70.6045   -6.3507 N.ar    1  UNL1       -0.2551
     18 N          17.1721   69.6935   -4.5733 N.ar    1  UNL1       -0.2743
     19 C          17.2241   70.0668   -5.9227 C.ar    1  UNL1        0.3323
     20 C          19.5150   70.7301   -5.4532 C.ar    1  UNL1        0.0869
     21 C          19.4499   70.3691   -4.1698 C.ar    1  UNL1        0.0795
     22 C          18.1941   69.7994   -3.6426 C.ar    1  UNL1        0.2626
     23 H          16.2928   69.3049   -4.2433 H       1  UNL1        0.1734
     24 O          20.8573   73.6740   -4.7400 O.3     1  UNL1       -0.2703
     25 P          20.5351   74.3526   -3.3089 P.3     1  UNL1        0.2208
     26 O          18.9436   74.1204   -3.1380 O.3     1  UNL1       -0.4371
     27 O          20.9682   75.7863   -3.1955 O.2     1  UNL1       -0.5170
     28 O          21.2105   73.3646   -2.2265 O.3     1  UNL1       -0.2858
     29 O          20.9020   71.4987   -0.8042 O.3     1  UNL1       -0.3226
     30 O          21.5356   74.5745    1.9193 O.3     1  UNL1       -0.3794
     31 O          19.8851   75.0066   -0.4461 O.3     1  UNL1       -0.3775
     32 O          21.3173   71.8227    2.0173 O.3     1  UNL1       -0.3792
     33 C          21.6651   73.8263    0.7136 C.3     1  UNL1        0.1718
     34 C          20.3127   73.7241    0.0001 C.3     1  UNL1        0.1968
     35 C          22.1854   72.4268    1.0528 C.3     1  UNL1        0.1723
     36 C          20.4042   72.7796   -1.2048 C.3     1  UNL1        0.2706
     37 C          22.1962   71.5639   -0.2072 C.3     1  UNL1        0.1830
     38 H          22.4127   74.6113    2.3374 H       1  UNL1        0.2105
     39 H          19.0325   74.8907   -0.8984 H       1  UNL1        0.2106
     40 H          20.4929   71.5639    1.5717 H       1  UNL1        0.2106
     41 O          21.4914   69.4409    0.5000 O.co2   1  UNL1       -0.5466
     42 O          23.7029   69.6893    0.0054 O.co2   1  UNL1       -0.5466
     43 C          22.5747   70.1501    0.1010 C.2     1  UNL1        0.0799
@<TRIPOS>UNITY_ATOM_ATTR
41 1
charge -1
@<TRIPOS>BOND
     1     1     4    1
     2     1    24    1
     3     1     2    1
     4     1     3    2
     5    25    28    1
     6    25    24    1
     7    25    26    1
     8    25    27    2
     9     6    11    1
    10     6    12    1
    11    29    36    1
    12    29    37    1
    13     7     9    1
    14     7    13    1
    15     8    10    1
    16     8    14    1
    17     4     5    1
    18    28    36    1
    19    30    33    1
    20    30    38    1
    21    31    34    1
    22    31    39    1
    23    32    35    1
    24    32    40    1
    25    41    43   ar
    26    15    19    2
    27    42    43   ar
    28    16    22    2
    29    17    12    1
    30    17    19   ar
    31    17    20   ar
    32    18    19   ar
    33    18    22   ar
    34    18    23    1
    35     9    10    1
    36     9    11    1
    37    10    12    1
    38    11     5    1
    39    33    34    1
    40    33    35    1
    41    34    36    1
    42    35    37    1
    43    37    43    1
    44    20    21   ar
    45    21    22   ar
@<TRIPOS>MOLECULE
UDP-glaA
 43 45 0 0 0
SMALL
GASTEIGER

@<TRIPOS>ATOM
      1 P          22.8758   71.8581   -2.4324 P.3     1  UNL1        0.2189
      2 O          23.6898   73.2479   -2.5850 O.3     1  UNL1       -0.4371
      3 O          23.4522   70.7001   -3.1933 O.2     1  UNL1       -0.5170
      4 O          21.3529   72.2555   -2.8045 O.3     1  UNL1       -0.3112
      5 C          20.5904   71.3550   -3.5898 C.3     1  UNL1        0.1811
      6 O          18.6527   72.1949   -4.7361 O.3     1  UNL1       -0.3308
      7 O          17.0449   70.9930   -2.5086 O.3     1  UNL1       -0.3794
      8 O          16.7598   69.1585   -4.5058 O.3     1  UNL1       -0.3779
      9 C          18.2375   70.5081   -3.1253 C.3     1  UNL1        0.1713
     10 C          17.9292   69.9511   -4.4991 C.3     1  UNL1        0.1895
     11 C          19.1156   71.7074   -3.4574 C.3     1  UNL1        0.1764
     12 C          17.7819   71.2163   -5.3271 C.3     1  UNL1        0.2383
     13 H          17.2969   71.3745   -1.6504 H       1  UNL1        0.2105
     14 H          16.8939   68.4335   -3.8713 H       1  UNL1        0.2106
     15 O          16.0135   70.3895   -7.3678 O.2     1  UNL1       -0.2464
     16 O          19.3445   70.5000  -10.5508 O.2     1  UNL1       -0.2670
     17 N          18.1599   71.0216   -6.6977 N.ar    1  UNL1       -0.2551
     18 N          17.6735   70.4445   -8.9514 N.ar    1  UNL1       -0.2743
     19 C          17.1952   70.6039   -7.6441 C.ar    1  UNL1        0.3323
     20 C          19.4744   71.2439   -7.0924 C.ar    1  UNL1        0.0869
     21 C          19.9148   71.0880   -8.3429 C.ar    1  UNL1        0.0795
     22 C          18.9713   70.6532   -9.3918 C.ar    1  UNL1        0.2626
     23 H          16.9976   70.1442   -9.6486 H       1  UNL1        0.1734
     24 O          22.8150   71.6478   -0.8301 O.3     1  UNL1       -0.2703
     25 P          22.0619   70.5324    0.0651 P.3     1  UNL1        0.2208
     26 O          23.2684   69.5727    0.5543 O.3     1  UNL1       -0.4371
     27 O          20.9511   69.8168   -0.6489 O.2     1  UNL1       -0.5170
     28 O          21.6007   71.3195    1.3962 O.3     1  UNL1       -0.2858
     29 O          21.9543   73.5872    0.8200 O.3     1  UNL1       -0.3226
     30 O          20.0404   73.9106    4.4959 O.3     1  UNL1       -0.3794
     31 O          22.0761   71.8680    4.0600 O.3     1  UNL1       -0.3775
     32 O          20.8162   75.6331    2.4806 O.3     1  UNL1       -0.3792
     33 C          20.3675   73.3764    3.2161 C.3     1  UNL1        0.1718
     34 C          21.8406   72.9563    3.1728 C.3     1  UNL1        0.1968
     35 C          20.0950   74.4415    2.1504 C.3     1  UNL1        0.1723
     36 C          22.2456   72.5413    1.7529 C.3     1  UNL1        0.2706
     37 C          20.5721   73.9396    0.7893 C.3     1  UNL1        0.1830
     38 H          19.1020   74.1647    4.4766 H       1  UNL1        0.2105
     39 H          23.0164   71.6317    3.9913 H       1  UNL1        0.2106
     40 H          21.7590   75.4847    2.2958 H       1  UNL1        0.2106
     41 O          19.3422   74.7884   -1.0192 O.co2   1  UNL1       -0.5466
     42 O          21.2212   75.9291   -0.4149 O.co2   1  UNL1       -0.5466
     43 C          20.4444   74.9980   -0.2597 C.2     1  UNL1        0.0799
@<TRIPOS>UNITY_ATOM_ATTR
41 1
charge -1
@<TRIPOS>BOND
     1     1     4    1
     2     1    24    1
     3     1     2    1
     4     1     3    2
     5    25    28    1
     6    25    24    1
     7    25    26    1
     8    25    27    2
     9     6    11    1
    10     6    12    1
    11    29    36    1
    12    29    37    1
    13     7     9    1
    14     7    13    1
    15     8    10    1
    16     8    14    1
    17     4     5    1
    18    28    36    1
    19    30    33    1
    20    30    38    1
    21    31    34    1
    22    31    39    1
    23    32    35    1
    24    32    40    1
    25    41    43   ar
    26    15    19    2
    27    42    43   ar
    28    16    22    2
    29    17    12    1
    30    17    19   ar
    31    17    20   ar
    32    18    19   ar
    33    18    22   ar
    34    18    23    1
    35     9    10    1
    36     9    11    1
    37    10    12    1
    38    11     5    1
    39    33    34    1
    40    33    35    1
    41    34    36    1
    42    35    37    1
    43    37    43    1
    44    20    21   ar
    45    21    22   ar
@<TRIPOS>MOLECULE
UDP-glaA
 43 45 0 0 0
SMALL
GASTEIGER

@<TRIPOS>ATOM
      1 P          22.0028   74.0356   -5.2987 P.3     1  UNL1        0.2189
      2 O          21.2768   75.1117   -6.2642 O.3     1  UNL1       -0.4371
      3 O          22.5895   72.8475   -6.0034 O.2     1  UNL1       -0.5170
      4 O          20.8879   73.7061   -4.1745 O.3     1  UNL1       -0.3112
      5 C          20.6163   72.3493   -3.8670 C.3     1  UNL1        0.1811
      6 O          18.4373   72.3567   -4.8799 O.3     1  UNL1       -0.3308
      7 O          17.4995   70.9017   -2.4315 O.3     1  UNL1       -0.3794
      8 O          17.7457   68.8936   -4.2597 O.3     1  UNL1       -0.3779
      9 C          18.7438   70.7970   -3.1232 C.3     1  UNL1        0.1713
     10 C          18.5616   70.0357   -4.4193 C.3     1  UNL1        0.1895
     11 C          19.1233   72.1858   -3.6201 C.3     1  UNL1        0.1764
     12 C          17.9277   71.0856   -5.3158 C.3     1  UNL1        0.2383
     13 H          17.6572   71.4290   -1.6298 H       1  UNL1        0.2105
     14 H          18.1658   68.3248   -3.5918 H       1  UNL1        0.2106
     15 O          16.0561   70.4618   -7.3366 O.2     1  UNL1       -0.2464
     16 O          19.3190   70.3881  -10.5903 O.2     1  UNL1       -0.2670
     17 N          18.2603   70.8985   -6.6992 N.ar    1  UNL1       -0.2551
     18 N          17.6822   70.4250   -8.9554 N.ar    1  UNL1       -0.2743
     19 C          17.2455   70.5868   -7.6340 C.ar    1  UNL1        0.3323
     20 C          19.5803   71.0238   -7.1178 C.ar    1  UNL1        0.0869
     21 C          19.9807   70.8670   -8.3815 C.ar    1  UNL1        0.0795
     22 C          18.9834   70.5393   -9.4196 C.ar    1  UNL1        0.2626
     23 H          16.9699   70.1999   -9.6446 H       1  UNL1        0.1734
     24 O          23.0757   74.9380   -4.4926 O.3     1  UNL1       -0.2703
     25 P          24.1509   74.5414   -3.3528 P.3     1  UNL1        0.2208
     26 O          23.9549   72.9434   -3.1975 O.3     1  UNL1       -0.4371
     27 O          24.0030   75.3115   -2.0718 O.2     1  UNL1       -0.5170
     28 O          25.5870   74.7090   -4.0693 O.3     1  UNL1       -0.2858
     29 O          27.2636   75.9490   -2.9509 O.3     1  UNL1       -0.3226
     30 O          28.7600   75.7572   -6.8243 O.3     1  UNL1       -0.3794
     31 O          25.9194   76.2219   -6.3548 O.3     1  UNL1       -0.3775
     32 O          29.6787   76.5991   -4.3592 O.3     1  UNL1       -0.3792
     33 C          28.0711   75.3395   -5.6491 C.3     1  UNL1        0.1718
     34 C          26.9145   76.2959   -5.3393 C.3     1  UNL1        0.1968
     35 C          29.0582   75.3148   -4.4788 C.3     1  UNL1        0.1723
     36 C          26.2759   75.9559   -3.9869 C.3     1  UNL1        0.2706
     37 C          28.3104   75.0078   -3.1832 C.3     1  UNL1        0.1830
     38 H          29.4832   75.1261   -6.9803 H       1  UNL1        0.2105
     39 H          25.2057   76.8353   -6.1113 H       1  UNL1        0.2106
     40 H          29.0315   77.2214   -3.9864 H       1  UNL1        0.2106
     41 O          29.1275   76.3266   -1.4233 O.co2   1  UNL1       -0.5466
     42 O          29.9316   74.1997   -1.5867 O.co2   1  UNL1       -0.5466
     43 C          29.2138   75.1012   -1.9948 C.2     1  UNL1        0.0799
@<TRIPOS>UNITY_ATOM_ATTR
41 1
charge -1
@<TRIPOS>BOND
     1     1     4    1
     2     1    24    1
     3     1     2    1
     4     1     3    2
     5    25    28    1
     6    25    24    1
     7    25    26    1
     8    25    27    2
     9     6    11    1
    10     6    12    1
    11    29    36    1
    12    29    37    1
    13     7     9    1
    14     7    13    1
    15     8    10    1
    16     8    14    1
    17     4     5    1
    18    28    36    1
    19    30    33    1
    20    30    38    1
    21    31    34    1
    22    31    39    1
    23    32    35    1
    24    32    40    1
    25    41    43   ar
    26    15    19    2
    27    42    43   ar
    28    16    22    2
    29    17    12    1
    30    17    19   ar
    31    17    20   ar
    32    18    19   ar
    33    18    22   ar
    34    18    23    1
    35     9    10    1
    36     9    11    1
    37    10    12    1
    38    11     5    1
    39    33    34    1
    40    33    35    1
    41    34    36    1
    42    35    37    1
    43    37    43    1
    44    20    21   ar
    45    21    22   ar
@<TRIPOS>MOLECULE
UDP-glaA
 43 45 0 0 0
SMALL
GASTEIGER

@<TRIPOS>ATOM
      1 P          22.8287   71.8537   -2.9858 P.3     1  UNL1        0.2189
      2 O          23.5310   70.4069   -3.1619 O.3     1  UNL1       -0.4371
      3 O          22.6975   72.3251   -1.5672 O.2     1  UNL1       -0.5170
      4 O          21.4452   71.7184   -3.8123 O.3     1  UNL1       -0.3112
      5 C          20.3705   72.5809   -3.4801 C.3     1  UNL1        0.1811
      6 O          18.2706   71.7353   -4.2863 O.3     1  UNL1       -0.3308
      7 O          18.4316   69.7381   -2.0554 O.3     1  UNL1       -0.3794
      8 O          19.2292   68.2810   -4.2180 O.3     1  UNL1       -0.3779
      9 C          19.4792   70.2812   -2.8588 C.3     1  UNL1        0.1713
     10 C          19.4437   69.6769   -4.2467 C.3     1  UNL1        0.1895
     11 C          19.1478   71.7412   -3.1384 C.3     1  UNL1        0.1764
     12 C          18.2929   70.4315   -4.8903 C.3     1  UNL1        0.2383
     13 H          18.4695   70.1819   -1.1911 H       1  UNL1        0.2105
     14 H          19.9488   67.8849   -3.6970 H       1  UNL1        0.2106
     15 O          16.2025   70.1831   -6.7728 O.2     1  UNL1       -0.2464
     16 O          19.0422   71.0060  -10.3080 O.2     1  UNL1       -0.2670
     17 N          18.4575   70.5765   -6.3085 N.ar    1  UNL1       -0.2551
     18 N          17.6180   70.5925   -8.5320 N.ar    1  UNL1       -0.2743
     19 C          17.3432   70.4316   -7.1676 C.ar    1  UNL1        0.3323
     20 C          19.7129   70.8590   -6.8354 C.ar    1  UNL1        0.0869
     21 C          19.9587   71.0100   -8.1387 C.ar    1  UNL1        0.0795
     22 C          18.8494   70.8736   -9.1033 C.ar    1  UNL1        0.2626
     23 H          16.8319   70.4921   -9.1684 H       1  UNL1        0.1734
     24 O          23.7255   72.8095   -3.9330 O.3     1  UNL1       -0.2703
     25 P          24.0022   74.4010   -3.8752 P.3     1  UNL1        0.2208
     26 O          25.6168   74.4974   -3.8822 O.3     1  UNL1       -0.4371
     27 O          23.3445   75.0989   -2.7194 O.2     1  UNL1       -0.5170
     28 O          23.5542   74.9469   -5.3261 O.3     1  UNL1       -0.2858
     29 O          21.6395   76.1228   -6.0681 O.3     1  UNL1       -0.3226
     30 O          22.4276   73.6194   -9.2916 O.3     1  UNL1       -0.3794
     31 O          22.6764   72.6367   -6.5570 O.3     1  UNL1       -0.3775
     32 O          20.7342   75.7371   -8.7644 O.3     1  UNL1       -0.3792
     33 C          22.6932   74.4556   -8.1688 C.3     1  UNL1        0.1718
     34 C          22.0561   73.8702   -6.9040 C.3     1  UNL1        0.1968
     35 C          22.1247   75.8503   -8.4445 C.3     1  UNL1        0.1723
     36 C          22.1887   74.8456   -5.7277 C.3     1  UNL1        0.2706
     37 C          22.2730   76.7204   -7.1982 C.3     1  UNL1        0.1830
     38 H          22.8463   74.0289  -10.0679 H       1  UNL1        0.2105
     39 H          22.2479   72.3102   -5.7479 H       1  UNL1        0.2106
     40 H          20.2441   75.5425   -7.9476 H       1  UNL1        0.2106
     41 O          21.8077   78.5140   -8.6371 O.co2   1  UNL1       -0.5466
     42 O          20.9843   78.6446   -6.5153 O.co2   1  UNL1       -0.5466
     43 C          21.6145   78.0511   -7.3785 C.2     1  UNL1        0.0799
@<TRIPOS>UNITY_ATOM_ATTR
41 1
charge -1
@<TRIPOS>BOND
     1     1     4    1
     2     1    24    1
     3     1     2    1
     4     1     3    2
     5    25    28    1
     6    25    24    1
     7    25    26    1
     8    25    27    2
     9     6    11    1
    10     6    12    1
    11    29    36    1
    12    29    37    1
    13     7     9    1
    14     7    13    1
    15     8    10    1
    16     8    14    1
    17     4     5    1
    18    28    36    1
    19    30    33    1
    20    30    38    1
    21    31    34    1
    22    31    39    1
    23    32    35    1
    24    32    40    1
    25    41    43   ar
    26    15    19    2
    27    42    43   ar
    28    16    22    2
    29    17    12    1
    30    17    19   ar
    31    17    20   ar
    32    18    19   ar
    33    18    22   ar
    34    18    23    1
    35     9    10    1
    36     9    11    1
    37    10    12    1
    38    11     5    1
    39    33    34    1
    40    33    35    1
    41    34    36    1
    42    35    37    1
    43    37    43    1
    44    20    21   ar
    45    21    22   ar
@<TRIPOS>MOLECULE
UDP-glaA
 43 45 0 0 0
SMALL
GASTEIGER

@<TRIPOS>ATOM
      1 P          21.4799   74.7254   -6.2818 P.3     1  UNL1        0.2189
      2 O          20.3505   75.5492   -5.4674 O.3     1  UNL1       -0.4371
      3 O          22.4975   75.5740   -6.9865 O.2     1  UNL1       -0.5170
      4 O          20.6284   73.7225   -7.2224 O.3     1  UNL1       -0.3112
      5 C          21.3039   72.6472   -7.8522 C.3     1  UNL1        0.1811
      6 O          19.9369   70.6886   -8.1155 O.3     1  UNL1       -0.3308
      7 O          18.4756   72.2224  -10.2377 O.3     1  UNL1       -0.3794
      8 O          16.8057   72.4353   -8.0925 O.3     1  UNL1       -0.3779
      9 C          19.0414   72.6898   -9.0133 C.3     1  UNL1        0.1713
     10 C          18.1847   72.2600   -7.8411 C.3     1  UNL1        0.1895
     11 C          20.3303   71.9170   -8.7663 C.3     1  UNL1        0.1764
     12 C          18.5691   70.7982   -7.6883 C.3     1  UNL1        0.2383
     13 H          19.0771   72.4869  -10.9545 H       1  UNL1        0.2105
     14 H          16.6611   73.3774   -8.2872 H       1  UNL1        0.2106
     15 O          16.2185   69.7402   -6.5348 O.2     1  UNL1       -0.2464
     16 O          18.2889   69.0858   -2.4699 O.2     1  UNL1       -0.2670
     17 N          18.4658   70.3432   -6.3312 N.ar    1  UNL1       -0.2551
     18 N          17.2509   69.4155   -4.5112 N.ar    1  UNL1       -0.2743
     19 C          17.2389   69.8297   -5.8497 C.ar    1  UNL1        0.3323
     20 C          19.5726   70.4084   -5.4921 C.ar    1  UNL1        0.0869
     21 C          19.5681   70.0091   -4.2184 C.ar    1  UNL1        0.0795
     22 C          18.3263   69.4611   -3.6376 C.ar    1  UNL1        0.2626
     23 H          16.3795   69.0434   -4.1434 H       1  UNL1        0.1734
     24 O          22.0899   73.7374   -5.1562 O.3     1  UNL1       -0.2703
     25 P          23.0724   74.0319   -3.9070 P.3     1  UNL1        0.2208
     26 O          22.9486   75.6321   -3.7067 O.3     1  UNL1       -0.4371
     27 O          24.4777   73.5380   -4.0988 O.2     1  UNL1       -0.5170
     28 O          22.3122   73.4006   -2.6312 O.3     1  UNL1       -0.2858
     29 O          22.7158   73.1567   -0.3124 O.3     1  UNL1       -0.3226
     30 O          21.2977   69.3897   -1.3506 O.3     1  UNL1       -0.3794
     31 O          23.1466   70.8112   -3.1018 O.3     1  UNL1       -0.3775
     32 O          21.9093   70.7279    0.9872 O.3     1  UNL1       -0.3792
     33 C          21.4320   70.8079   -1.3794 C.3     1  UNL1        0.1718
     34 C          22.8626   71.2016   -1.7625 C.3     1  UNL1        0.1968
     35 C          21.0877   71.3662    0.0042 C.3     1  UNL1        0.1723
     36 C          23.0633   72.7163   -1.6293 C.3     1  UNL1        0.2706
     37 C          21.3623   72.8681    0.0344 C.3     1  UNL1        0.1830
     38 H          20.3798   69.1869   -1.1019 H       1  UNL1        0.2105
     39 H          24.0565   71.0888   -3.3016 H       1  UNL1        0.2106
     40 H          22.8120   71.0810    0.9118 H       1  UNL1        0.2106
     41 O          21.4482   74.7577    1.4221 O.co2   1  UNL1       -0.5466
     42 O          20.7914   72.7957    2.3793 O.co2   1  UNL1       -0.5466
     43 C          21.1631   73.4333    1.4048 C.2     1  UNL1        0.0799
@<TRIPOS>UNITY_ATOM_ATTR
41 1
charge -1
@<TRIPOS>BOND
     1     1     4    1
     2     1    24    1
     3     1     2    1
     4     1     3    2
     5    25    28    1
     6    25    24    1
     7    25    26    1
     8    25    27    2
     9     6    11    1
    10     6    12    1
    11    29    36    1
    12    29    37    1
    13     7     9    1
    14     7    13    1
    15     8    10    1
    16     8    14    1
    17     4     5    1
    18    28    36    1
    19    30    33    1
    20    30    38    1
    21    31    34    1
    22    31    39    1
    23    32    35    1
    24    32    40    1
    25    41    43   ar
    26    15    19    2
    27    42    43   ar
    28    16    22    2
    29    17    12    1
    30    17    19   ar
    31    17    20   ar
    32    18    19   ar
    33    18    22   ar
    34    18    23    1
    35     9    10    1
    36     9    11    1
    37    10    12    1
    38    11     5    1
    39    33    34    1
    40    33    35    1
    41    34    36    1
    42    35    37    1
    43    37    43    1
    44    20    21   ar
    45    21    22   ar
@<TRIPOS>MOLECULE
UDP-glaA
 43 45 0 0 0
SMALL
GASTEIGER

@<TRIPOS>ATOM
      1 P          20.3207   70.2790   -2.1254 P.3     1  UNL1        0.2189
      2 O          21.5800   69.5544   -2.8371 O.3     1  UNL1       -0.4371
      3 O          19.0137   69.5541   -2.2611 O.2     1  UNL1       -0.5170
      4 O          20.3537   71.7849   -2.7143 O.3     1  UNL1       -0.3112
      5 C          20.2189   71.9682   -4.1134 C.3     1  UNL1        0.1811
      6 O          19.2175   73.3857   -5.7754 O.3     1  UNL1       -0.3308
      7 O          16.9319   73.7009   -3.8602 O.3     1  UNL1       -0.3794
      8 O          15.9742   71.8635   -5.6330 O.3     1  UNL1       -0.3779
      9 C          17.7441   72.5553   -4.1165 C.3     1  UNL1        0.1713
     10 C          17.3727   71.9353   -5.4470 C.3     1  UNL1        0.1895
     11 C          19.1660   73.0360   -4.3747 C.3     1  UNL1        0.1764
     12 C          18.0454   72.8758   -6.4324 C.3     1  UNL1        0.2383
     13 H          17.2313   74.0862   -3.0191 H       1  UNL1        0.2105
     14 H          15.6085   71.3358   -4.9023 H       1  UNL1        0.2106
     15 O          18.0777   74.0911   -8.9814 O.2     1  UNL1       -0.2464
     16 O          19.5741   70.2304  -11.0049 O.2     1  UNL1       -0.2670
     17 N          18.4394   72.2120   -7.6421 N.ar    1  UNL1       -0.2551
     18 N          18.8223   72.1676   -9.9874 N.ar    1  UNL1       -0.2743
     19 C          18.4192   72.9121   -8.8710 C.ar    1  UNL1        0.3323
     20 C          18.8404   70.8811   -7.6035 C.ar    1  UNL1        0.0869
     21 C          19.2224   70.1853   -8.6767 C.ar    1  UNL1        0.0795
     22 C          19.2290   70.8424   -9.9987 C.ar    1  UNL1        0.2626
     23 H          18.8150   72.6505  -10.8818 H       1  UNL1        0.1734
     24 O          20.8279   70.4736   -0.6023 O.3     1  UNL1       -0.2703
     25 P          22.2905   70.2874    0.0602 P.3     1  UNL1        0.2208
     26 O          23.2886   70.8571   -1.0779 O.3     1  UNL1       -0.4371
     27 O          22.5919   68.8843    0.5032 O.2     1  UNL1       -0.5170
     28 O          22.3477   71.3860    1.2407 O.3     1  UNL1       -0.2858
     29 O          20.9730   72.5156    2.8008 O.3     1  UNL1       -0.3226
     30 O          22.8453   75.6700    0.8453 O.3     1  UNL1       -0.3794
     31 O          21.9049   73.3490   -0.6496 O.3     1  UNL1       -0.3775
     32 O          21.2157   75.3643    3.0546 O.3     1  UNL1       -0.3792
     33 C          22.6837   74.3728    1.4124 C.3     1  UNL1        0.1718
     34 C          21.5546   73.6167    0.7041 C.3     1  UNL1        0.1968
     35 C          22.3616   74.5202    2.9020 C.3     1  UNL1        0.1723
     36 C          21.2585   72.2910    1.4162 C.3     1  UNL1        0.2706
     37 C          22.0451   73.1497    3.4967 C.3     1  UNL1        0.1830
     38 H          23.5666   76.1120    1.3247 H       1  UNL1        0.2105
     39 H          21.1663   72.8625   -1.0530 H       1  UNL1        0.2106
     40 H          20.4260   74.8645    2.7870 H       1  UNL1        0.2106
     41 O          22.6070   72.9370    5.7644 O.co2   1  UNL1       -0.5466
     42 O          20.4801   73.5991    5.2796 O.co2   1  UNL1       -0.5466
     43 C          21.5983   73.2606    4.9197 C.2     1  UNL1        0.0799
@<TRIPOS>UNITY_ATOM_ATTR
41 1
charge -1
@<TRIPOS>BOND
     1     1     4    1
     2     1    24    1
     3     1     2    1
     4     1     3    2
     5    25    28    1
     6    25    24    1
     7    25    26    1
     8    25    27    2
     9     6    11    1
    10     6    12    1
    11    29    36    1
    12    29    37    1
    13     7     9    1
    14     7    13    1
    15     8    10    1
    16     8    14    1
    17     4     5    1
    18    28    36    1
    19    30    33    1
    20    30    38    1
    21    31    34    1
    22    31    39    1
    23    32    35    1
    24    32    40    1
    25    41    43   ar
    26    15    19    2
    27    42    43   ar
    28    16    22    2
    29    17    12    1
    30    17    19   ar
    31    17    20   ar
    32    18    19   ar
    33    18    22   ar
    34    18    23    1
    35     9    10    1
    36     9    11    1
    37    10    12    1
    38    11     5    1
    39    33    34    1
    40    33    35    1
    41    34    36    1
    42    35    37    1
    43    37    43    1
    44    20    21   ar
    45    21    22   ar
@<TRIPOS>MOLECULE
UDP-glaA
 43 45 0 0 0
SMALL
GASTEIGER

@<TRIPOS>ATOM
      1 P          22.7531   73.4711   -4.1973 P.3     1  UNL1        0.2189
      2 O          22.4112   74.8591   -3.4397 O.3     1  UNL1       -0.4371
      3 O          24.1724   73.0049   -4.0544 O.2     1  UNL1       -0.5170
      4 O          22.2434   73.7181   -5.7121 O.3     1  UNL1       -0.3112
      5 C          21.1888   74.6398   -5.9302 C.3     1  UNL1        0.1811
      6 O          20.6122   73.7443   -8.0843 O.3     1  UNL1       -0.3308
      7 O          20.4385   76.5902   -9.0130 O.3     1  UNL1       -0.3794
      8 O          17.8206   75.9249   -8.6395 O.3     1  UNL1       -0.3779
      9 C          20.0809   76.0288   -7.7502 C.3     1  UNL1        0.1713
     10 C          18.7910   75.2451   -7.8702 C.3     1  UNL1        0.1895
     11 C          21.0885   74.9355   -7.4199 C.3     1  UNL1        0.1764
     12 C          19.2626   73.9597   -8.5287 C.3     1  UNL1        0.2383
     13 H          21.2883   77.0483   -8.8963 H       1  UNL1        0.2105
     14 H          17.6547   76.7819   -8.2103 H       1  UNL1        0.2106
     15 O          18.9845   71.6217  -10.0881 O.2     1  UNL1       -0.2464
     16 O          16.1627   69.6806   -7.0045 O.2     1  UNL1       -0.2670
     17 N          18.4622   72.8279   -8.1574 N.ar    1  UNL1       -0.2551
     18 N          17.5792   70.6569   -8.5518 N.ar    1  UNL1       -0.2743
     19 C          18.3892   71.7033   -9.0121 C.ar    1  UNL1        0.3323
     20 C          17.7597   72.8395   -6.9574 C.ar    1  UNL1        0.0869
     21 C          16.9920   71.8337   -6.5324 C.ar    1  UNL1        0.0795
     22 C          16.8612   70.6225   -7.3664 C.ar    1  UNL1        0.2626
     23 H          17.5113   69.8382   -9.1504 H       1  UNL1        0.1734
     24 O          21.6466   72.4521   -3.6035 O.3     1  UNL1       -0.2703
     25 P          21.8032   70.9889   -2.9349 P.3     1  UNL1        0.2208
     26 O          23.3830   70.6779   -3.0886 O.3     1  UNL1       -0.4371
     27 O          20.9046   69.9415   -3.5274 O.2     1  UNL1       -0.5170
     28 O          21.5875   71.2361   -1.3549 O.3     1  UNL1       -0.2858
     29 O          23.2115   72.7410   -0.5199 O.3     1  UNL1       -0.3226
     30 O          21.1894   71.6342    2.9392 O.3     1  UNL1       -0.3794
     31 O          21.8223   69.6529    0.8948 O.3     1  UNL1       -0.3775
     32 O          23.1084   73.4966    2.2473 O.3     1  UNL1       -0.3792
     33 C          21.3851   71.9483    1.5632 C.3     1  UNL1        0.1718
     34 C          22.3731   70.9653    0.9261 C.3     1  UNL1        0.1968
     35 C          21.9234   73.3774    1.4532 C.3     1  UNL1        0.1723
     36 C          22.7218   71.3960   -0.5041 C.3     1  UNL1        0.2706
     37 C          22.2739   73.6832   -0.0014 C.3     1  UNL1        0.1830
     38 H          20.5606   72.2816    3.3013 H       1  UNL1        0.2105
     39 H          22.4774   69.0697    0.4758 H       1  UNL1        0.2106
     40 H          23.8332   73.0360    1.7916 H       1  UNL1        0.2106
     41 O          24.2703   74.9152   -0.0227 O.co2   1  UNL1       -0.5466
     42 O          22.3315   76.0746   -0.3293 O.co2   1  UNL1       -0.5466
     43 C          22.9246   75.0230   -0.1375 C.2     1  UNL1        0.0799
@<TRIPOS>UNITY_ATOM_ATTR
41 1
charge -1
@<TRIPOS>BOND
     1     1     4    1
     2     1    24    1
     3     1     2    1
     4     1     3    2
     5    25    28    1
     6    25    24    1
     7    25    26    1
     8    25    27    2
     9     6    11    1
    10     6    12    1
    11    29    36    1
    12    29    37    1
    13     7     9    1
    14     7    13    1
    15     8    10    1
    16     8    14    1
    17     4     5    1
    18    28    36    1
    19    30    33    1
    20    30    38    1
    21    31    34    1
    22    31    39    1
    23    32    35    1
    24    32    40    1
    25    41    43   ar
    26    15    19    2
    27    42    43   ar
    28    16    22    2
    29    17    12    1
    30    17    19   ar
    31    17    20   ar
    32    18    19   ar
    33    18    22   ar
    34    18    23    1
    35     9    10    1
    36     9    11    1
    37    10    12    1
    38    11     5    1
    39    33    34    1
    40    33    35    1
    41    34    36    1
    42    35    37    1
    43    37    43    1
    44    20    21   ar
    45    21    22   ar
@<TRIPOS>MOLECULE
UDP-glaA
 43 45 0 0 0
SMALL
GASTEIGER

@<TRIPOS>ATOM
      1 P          23.8272   74.2543   -2.9598 P.3     1  UNL1        0.2189
      2 O          23.0472   75.5853   -3.4470 O.3     1  UNL1       -0.4371
      3 O          24.0096   74.1353   -1.4750 O.2     1  UNL1       -0.5170
      4 O          25.1859   74.2557   -3.8370 O.3     1  UNL1       -0.3112
      5 C          25.8126   75.4967   -4.1133 C.3     1  UNL1        0.1811
      6 O          27.9711   74.7337   -3.3833 O.3     1  UNL1       -0.3308
      7 O          28.2383   77.3874   -2.0129 O.3     1  UNL1       -0.3794
      8 O          29.7265   77.7311   -4.2719 O.3     1  UNL1       -0.3779
      9 C          27.6167   77.0728   -3.2589 C.3     1  UNL1        0.1713
     10 C          28.6665   76.7984   -4.3150 C.3     1  UNL1        0.1895
     11 C          26.9435   75.7139   -3.1181 C.3     1  UNL1        0.1764
     12 C          29.1125   75.3906   -3.9585 C.3     1  UNL1        0.2383
     13 H          27.5295   77.5165   -1.3599 H       1  UNL1        0.2105
     14 H          29.3433   78.6159   -4.4006 H       1  UNL1        0.2106
     15 O          31.2887   73.5907   -3.9575 O.2     1  UNL1       -0.2464
     16 O          30.7038   72.5954   -8.4191 O.2     1  UNL1       -0.2670
     17 N          29.5505   74.6473   -5.1053 N.ar    1  UNL1       -0.2551
     18 N          30.9964   73.0967   -6.1794 N.ar    1  UNL1       -0.2743
     19 C          30.6550   73.7701   -4.9991 C.ar    1  UNL1        0.3323
     20 C          28.8877   74.7914   -6.3191 C.ar    1  UNL1        0.0869
     21 C          29.2250   74.1419   -7.4354 C.ar    1  UNL1        0.0795
     22 C          30.3678   73.2075   -7.4100 C.ar    1  UNL1        0.2626
     23 H          31.7878   72.4611   -6.1267 H       1  UNL1        0.1734
     24 O          22.9636   73.0625   -3.6299 O.3     1  UNL1       -0.2703
     25 P          22.5600   71.6012   -3.0694 P.3     1  UNL1        0.2208
     26 O          22.1314   71.8964   -1.5380 O.3     1  UNL1       -0.4371
     27 O          23.6353   70.5639   -3.2233 O.2     1  UNL1       -0.5170
     28 O          21.1765   71.2435   -3.8190 O.3     1  UNL1       -0.2858
     29 O          18.9829   72.0889   -4.0891 O.3     1  UNL1       -0.3226
     30 O          18.2671   68.1414   -3.0007 O.3     1  UNL1       -0.3794
     31 O          20.3685   69.6819   -1.6903 O.3     1  UNL1       -0.3775
     32 O          16.7662   70.2743   -3.9106 O.3     1  UNL1       -0.3792
     33 C          18.9316   69.2492   -3.6020 C.3     1  UNL1        0.1718
     34 C          19.3722   70.2534   -2.5316 C.3     1  UNL1        0.1968
     35 C          17.9758   69.9229   -4.5905 C.3     1  UNL1        0.1723
     36 C          19.9331   71.5259   -3.1785 C.3     1  UNL1        0.2706
     37 C          18.6181   71.1949   -5.1396 C.3     1  UNL1        0.1830
     38 H          18.0046   67.5346   -3.7137 H       1  UNL1        0.2105
     39 H          20.6222   70.3553   -1.0369 H       1  UNL1        0.2106
     40 H          16.9442   71.0408   -3.3397 H       1  UNL1        0.2106
     41 O          16.5645   71.2160   -6.2737 O.co2   1  UNL1       -0.5466
     42 O          17.8556   73.0884   -6.4292 O.co2   1  UNL1       -0.5466
     43 C          17.6692   71.9550   -6.0107 C.2     1  UNL1        0.0799
@<TRIPOS>UNITY_ATOM_ATTR
41 1
charge -1
@<TRIPOS>BOND
     1     1     4    1
     2     1    24    1
     3     1     2    1
     4     1     3    2
     5    25    28    1
     6    25    24    1
     7    25    26    1
     8    25    27    2
     9     6    11    1
    10     6    12    1
    11    29    36    1
    12    29    37    1
    13     7     9    1
    14     7    13    1
    15     8    10    1
    16     8    14    1
    17     4     5    1
    18    28    36    1
    19    30    33    1
    20    30    38    1
    21    31    34    1
    22    31    39    1
    23    32    35    1
    24    32    40    1
    25    41    43   ar
    26    15    19    2
    27    42    43   ar
    28    16    22    2
    29    17    12    1
    30    17    19   ar
    31    17    20   ar
    32    18    19   ar
    33    18    22   ar
    34    18    23    1
    35     9    10    1
    36     9    11    1
    37    10    12    1
    38    11     5    1
    39    33    34    1
    40    33    35    1
    41    34    36    1
    42    35    37    1
    43    37    43    1
    44    20    21   ar
    45    21    22   ar
@<TRIPOS>MOLECULE
UDP-glaA
 43 45 0 0 0
SMALL
GASTEIGER

@<TRIPOS>ATOM
      1 P          19.4316   70.3999   -2.3976 P.3     1  UNL1        0.2189
      2 O          18.3614   69.1875   -2.4437 O.3     1  UNL1       -0.4371
      3 O          18.9025   71.6906   -1.8441 O.2     1  UNL1       -0.5170
      4 O          20.0101   70.4668   -3.9064 O.3     1  UNL1       -0.3112
      5 C          19.2373   69.9052   -4.9536 C.3     1  UNL1        0.1811
      6 O          18.7188   72.1772   -5.5397 O.3     1  UNL1       -0.3308
      7 O          16.1281   71.1127   -6.6106 O.3     1  UNL1       -0.3794
      8 O          17.6167   71.4418   -8.8715 O.3     1  UNL1       -0.3779
      9 C          17.4259   70.5185   -6.6305 C.3     1  UNL1        0.1713
     10 C          18.3012   71.2031   -7.6590 C.3     1  UNL1        0.1895
     11 C          18.1266   70.8768   -5.3265 C.3     1  UNL1        0.1764
     12 C          18.6852   72.4866   -6.9427 C.3     1  UNL1        0.2383
     13 H          15.6171   70.6693   -5.9121 H       1  UNL1        0.2105
     14 H          17.3107   70.5823   -9.2089 H       1  UNL1        0.2106
     15 O          20.7333   70.8746   -8.0299 O.2     1  UNL1       -0.2464
     16 O          23.5904   74.4665   -8.4466 O.2     1  UNL1       -0.2670
     17 N          19.9737   72.9742   -7.3445 N.ar    1  UNL1       -0.2551
     18 N          22.1549   72.6642   -8.2362 N.ar    1  UNL1       -0.2743
     19 C          20.9321   72.0813   -7.8783 C.ar    1  UNL1        0.3323
     20 C          20.2774   74.3242   -7.2078 C.ar    1  UNL1        0.0869
     21 C          21.4478   74.8647   -7.5542 C.ar    1  UNL1        0.0795
     22 C          22.5034   74.0008   -8.1188 C.ar    1  UNL1        0.2626
     23 H          22.8593   72.0410   -8.6217 H       1  UNL1        0.1734
     24 O          20.6633   69.7645   -1.5643 O.3     1  UNL1       -0.2703
     25 P          21.7089   70.4426   -0.5351 P.3     1  UNL1        0.2208
     26 O          23.1228   70.3259   -1.3118 O.3     1  UNL1       -0.4371
     27 O          21.7039   69.8344    0.8382 O.2     1  UNL1       -0.5170
     28 O          21.3533   72.0163   -0.5684 O.3     1  UNL1       -0.2858
     29 O          23.2058   73.0108   -1.6542 O.3     1  UNL1       -0.3226
     30 O          20.6402   76.2455   -1.1701 O.3     1  UNL1       -0.3794
     31 O          20.9673   74.2820    0.9614 O.3     1  UNL1       -0.3775
     32 O          23.0167   75.7507   -2.4882 O.3     1  UNL1       -0.3792
     33 C          21.0429   74.8963   -1.3888 C.3     1  UNL1        0.1718
     34 C          21.8176   74.3667   -0.1773 C.3     1  UNL1        0.1968
     35 C          21.9238   74.8390   -2.6398 C.3     1  UNL1        0.1723
     36 C          22.4018   72.9792   -0.4703 C.3     1  UNL1        0.2706
     37 C          22.4814   73.4276   -2.8106 C.3     1  UNL1        0.1830
     38 H          20.1569   76.5392   -1.9611 H       1  UNL1        0.2105
     39 H          21.4975   73.9342    1.6982 H       1  UNL1        0.2106
     40 H          23.6479   75.3734   -1.8523 H       1  UNL1        0.2106
     41 O          22.8883   72.7487   -5.0191 O.co2   1  UNL1       -0.5466
     42 O          24.5951   73.7870   -3.9210 O.co2   1  UNL1       -0.5466
     43 C          23.4514   73.3561   -3.9469 C.2     1  UNL1        0.0799
@<TRIPOS>UNITY_ATOM_ATTR
41 1
charge -1
@<TRIPOS>BOND
     1     1     4    1
     2     1    24    1
     3     1     2    1
     4     1     3    2
     5    25    28    1
     6    25    24    1
     7    25    26    1
     8    25    27    2
     9     6    11    1
    10     6    12    1
    11    29    36    1
    12    29    37    1
    13     7     9    1
    14     7    13    1
    15     8    10    1
    16     8    14    1
    17     4     5    1
    18    28    36    1
    19    30    33    1
    20    30    38    1
    21    31    34    1
    22    31    39    1
    23    32    35    1
    24    32    40    1
    25    41    43   ar
    26    15    19    2
    27    42    43   ar
    28    16    22    2
    29    17    12    1
    30    17    19   ar
    31    17    20   ar
    32    18    19   ar
    33    18    22   ar
    34    18    23    1
    35     9    10    1
    36     9    11    1
    37    10    12    1
    38    11     5    1
    39    33    34    1
    40    33    35    1
    41    34    36    1
    42    35    37    1
    43    37    43    1
    44    20    21   ar
    45    21    22   ar
@<TRIPOS>MOLECULE
UDP-glaA
 43 45 0 0 0
SMALL
GASTEIGER

@<TRIPOS>ATOM
      1 P          22.0132   73.8077   -6.2779 P.3     1  UNL1        0.2189
      2 O          22.7521   75.2165   -5.9834 O.3     1  UNL1       -0.4371
      3 O          22.7925   72.8506   -7.1317 O.2     1  UNL1       -0.5170
      4 O          20.5637   74.2400   -6.8501 O.3     1  UNL1       -0.3112
      5 C          20.1047   73.6448   -8.0519 C.3     1  UNL1        0.1811
      6 O          18.7025   72.5533   -6.4344 O.3     1  UNL1       -0.3308
      7 O          17.9603   70.6561   -8.6347 O.3     1  UNL1       -0.3794
      8 O          15.8171   72.3400   -8.5521 O.3     1  UNL1       -0.3779
      9 C          18.2271   72.0568   -8.7015 C.3     1  UNL1        0.1713
     10 C          17.0670   72.8405   -8.1248 C.3     1  UNL1        0.1895
     11 C          19.3448   72.3697   -7.7153 C.3     1  UNL1        0.1764
     12 C          17.2838   72.6717   -6.6306 C.3     1  UNL1        0.2383
     13 H          18.7446   70.1950   -8.9779 H       1  UNL1        0.2105
     14 H          15.8015   72.3824   -9.5238 H       1  UNL1        0.2106
     15 O          15.2879   72.5126   -4.6389 O.2     1  UNL1       -0.2464
     16 O          15.5040   77.0394   -3.8026 O.2     1  UNL1       -0.2670
     17 N          16.7998   73.7925   -5.8764 N.ar    1  UNL1       -0.2551
     18 N          15.3964   74.7670   -4.2241 N.ar    1  UNL1       -0.2743
     19 C          15.7943   73.6055   -4.8993 C.ar    1  UNL1        0.3323
     20 C          17.3207   75.0608   -6.1081 C.ar    1  UNL1        0.0869
     21 C          16.9312   76.1583   -5.4556 C.ar    1  UNL1        0.0795
     22 C          15.8847   76.0496   -4.4200 C.ar    1  UNL1        0.2626
     23 H          14.6742   74.6565   -3.5176 H       1  UNL1        0.1734
     24 O          21.6701   73.2616   -4.7950 O.3     1  UNL1       -0.2703
     25 P          22.5944   72.5125   -3.7008 P.3     1  UNL1        0.2208
     26 O          24.0888   73.0007   -4.0808 O.3     1  UNL1       -0.4371
     27 O          22.4198   71.0212   -3.6644 O.2     1  UNL1       -0.5170
     28 O          22.2635   73.2567   -2.3077 O.3     1  UNL1       -0.2858
     29 O          21.3746   71.5140   -0.9764 O.3     1  UNL1       -0.3226
     30 O          21.6597   74.6364    1.7529 O.3     1  UNL1       -0.3794
     31 O          20.7368   75.1280   -0.9697 O.3     1  UNL1       -0.3775
     32 O          21.0888   71.9355    1.8484 O.3     1  UNL1       -0.3792
     33 C          22.0016   73.8166    0.6387 C.3     1  UNL1        0.1718
     34 C          20.8755   73.8304   -0.4005 C.3     1  UNL1        0.1968
     35 C          22.2424   72.3869    1.1313 C.3     1  UNL1        0.1723
     36 C          21.1568   72.8202   -1.5198 C.3     1  UNL1        0.2706
     37 C          22.4703   71.4640   -0.0638 C.3     1  UNL1        0.1830
     38 H          22.3980   74.5958    2.3845 H       1  UNL1        0.2105
     39 H          20.0212   75.0854   -1.6262 H       1  UNL1        0.2106
     40 H          20.3810   71.7484    1.2087 H       1  UNL1        0.2106
     41 O          23.8644   69.6081    0.2767 O.co2   1  UNL1       -0.5466
     42 O          21.6483   69.3406    0.7396 O.co2   1  UNL1       -0.5466
     43 C          22.5813   70.0345    0.3620 C.2     1  UNL1        0.0799
@<TRIPOS>UNITY_ATOM_ATTR
41 1
charge -1
@<TRIPOS>BOND
     1     1     4    1
     2     1    24    1
     3     1     2    1
     4     1     3    2
     5    25    28    1
     6    25    24    1
     7    25    26    1
     8    25    27    2
     9     6    11    1
    10     6    12    1
    11    29    36    1
    12    29    37    1
    13     7     9    1
    14     7    13    1
    15     8    10    1
    16     8    14    1
    17     4     5    1
    18    28    36    1
    19    30    33    1
    20    30    38    1
    21    31    34    1
    22    31    39    1
    23    32    35    1
    24    32    40    1
    25    41    43   ar
    26    15    19    2
    27    42    43   ar
    28    16    22    2
    29    17    12    1
    30    17    19   ar
    31    17    20   ar
    32    18    19   ar
    33    18    22   ar
    34    18    23    1
    35     9    10    1
    36     9    11    1
    37    10    12    1
    38    11     5    1
    39    33    34    1
    40    33    35    1
    41    34    36    1
    42    35    37    1
    43    37    43    1
    44    20    21   ar
    45    21    22   ar
@<TRIPOS>MOLECULE
UDP-glaA
 43 45 0 0 0
SMALL
GASTEIGER

@<TRIPOS>ATOM
      1 P          19.3954   69.8796   -3.0547 P.3     1  UNL1        0.2189
      2 O          19.7060   69.6959   -4.6317 O.3     1  UNL1       -0.4371
      3 O          18.6104   68.7635   -2.4299 O.2     1  UNL1       -0.5170
      4 O          18.7270   71.3491   -2.9577 O.3     1  UNL1       -0.3112
      5 C          17.7341   71.7055   -3.9044 C.3     1  UNL1        0.1811
      6 O          18.7676   73.2840   -5.3926 O.3     1  UNL1       -0.3308
      7 O          16.7010   75.2418   -4.4504 O.3     1  UNL1       -0.3794
      8 O          15.7087   74.4425   -6.8613 O.3     1  UNL1       -0.3779
      9 C          16.5791   73.8371   -4.6735 C.3     1  UNL1        0.1713
     10 C          16.5401   73.5425   -6.1582 C.3     1  UNL1        0.1895
     11 C          17.8867   73.1794   -4.2523 C.3     1  UNL1        0.1764
     12 C          18.0032   73.6753   -6.5450 C.3     1  UNL1        0.2383
     13 H          16.7615   75.3785   -3.4896 H       1  UNL1        0.2105
     14 H          14.8159   74.3741   -6.4813 H       1  UNL1        0.2106
     15 O          17.7881   74.4233   -9.2597 O.2     1  UNL1       -0.2464
     16 O          19.3888   70.3483  -10.6988 O.2     1  UNL1       -0.2670
     17 N          18.3572   72.8300   -7.6493 N.ar    1  UNL1       -0.2551
     18 N          18.5848   72.3934   -9.9745 N.ar    1  UNL1       -0.2743
     19 C          18.2105   73.3011   -8.9750 C.ar    1  UNL1        0.3323
     20 C          18.8436   71.5490   -7.4136 C.ar    1  UNL1        0.0869
     21 C          19.1967   70.6956   -8.3774 C.ar    1  UNL1        0.0795
     22 C          19.0733   71.1093   -9.7892 C.ar    1  UNL1        0.2626
     23 H          18.4872   72.7104  -10.9353 H       1  UNL1        0.1734
     24 O          20.8653   70.1067   -2.4199 O.3     1  UNL1       -0.2703
     25 P          22.0616   71.1065   -2.8466 P.3     1  UNL1        0.2208
     26 O          21.4299   71.9339   -4.0846 O.3     1  UNL1       -0.4371
     27 O          23.3587   70.4170   -3.1593 O.2     1  UNL1       -0.5170
     28 O          22.1490   72.1769   -1.6422 O.3     1  UNL1       -0.2858
     29 O          20.9927   72.2511    0.4210 O.3     1  UNL1       -0.3226
     30 O          21.4820   76.2863   -0.4487 O.3     1  UNL1       -0.3794
     31 O          20.7753   74.3926   -2.5512 O.3     1  UNL1       -0.3775
     32 O          20.5998   74.7907    1.6995 O.3     1  UNL1       -0.3792
     33 C          21.7891   74.8958   -0.4005 C.3     1  UNL1        0.1718
     34 C          20.7318   74.0883   -1.1611 C.3     1  UNL1        0.1968
     35 C          21.8360   74.4495    1.0635 C.3     1  UNL1        0.1723
     36 C          20.9572   72.5832   -0.9709 C.3     1  UNL1        0.2706
     37 C          22.0227   72.9354    1.1327 C.3     1  UNL1        0.1830
     38 H          22.1742   76.7570    0.0461 H       1  UNL1        0.2105
     39 H          20.0973   73.8526   -2.9911 H       1  UNL1        0.2106
     40 H          19.9121   74.1791    1.3862 H       1  UNL1        0.2106
     41 O          23.1554   72.5164    3.1439 O.co2   1  UNL1       -0.5466
     42 O          20.9312   72.0205    3.0824 O.co2   1  UNL1       -0.5466
     43 C          21.9446   72.4383    2.5412 C.2     1  UNL1        0.0799
@<TRIPOS>UNITY_ATOM_ATTR
41 1
charge -1
@<TRIPOS>BOND
     1     1     4    1
     2     1    24    1
     3     1     2    1
     4     1     3    2
     5    25    28    1
     6    25    24    1
     7    25    26    1
     8    25    27    2
     9     6    11    1
    10     6    12    1
    11    29    36    1
    12    29    37    1
    13     7     9    1
    14     7    13    1
    15     8    10    1
    16     8    14    1
    17     4     5    1
    18    28    36    1
    19    30    33    1
    20    30    38    1
    21    31    34    1
    22    31    39    1
    23    32    35    1
    24    32    40    1
    25    41    43   ar
    26    15    19    2
    27    42    43   ar
    28    16    22    2
    29    17    12    1
    30    17    19   ar
    31    17    20   ar
    32    18    19   ar
    33    18    22   ar
    34    18    23    1
    35     9    10    1
    36     9    11    1
    37    10    12    1
    38    11     5    1
    39    33    34    1
    40    33    35    1
    41    34    36    1
    42    35    37    1
    43    37    43    1
    44    20    21   ar
    45    21    22   ar
@<TRIPOS>MOLECULE
UDP-glaA
 43 45 0 0 0
SMALL
GASTEIGER

@<TRIPOS>ATOM
      1 P          21.2937   72.3499   -1.0764 P.3     1  UNL1        0.2189
      2 O          21.4854   70.7513   -0.9180 O.3     1  UNL1       -0.4371
      3 O          20.1041   72.9188   -0.3598 O.2     1  UNL1       -0.5170
      4 O          21.3324   72.5905   -2.6752 O.3     1  UNL1       -0.3112
      5 C          20.6651   71.6647   -3.5160 C.3     1  UNL1        0.1811
      6 O          18.6264   72.2548   -4.6429 O.3     1  UNL1       -0.3308
      7 O          17.2014   70.9255   -2.3639 O.3     1  UNL1       -0.3794
      8 O          17.0955   69.0286   -4.3200 O.3     1  UNL1       -0.3779
      9 C          18.4315   70.5662   -2.9927 C.3     1  UNL1        0.1713
     10 C          18.1670   69.9488   -4.3497 C.3     1  UNL1        0.1895
     11 C          19.1620   71.8501   -3.3636 C.3     1  UNL1        0.1764
     12 C          17.8635   71.1713   -5.1990 C.3     1  UNL1        0.2383
     13 H          17.4219   71.3512   -1.5179 H       1  UNL1        0.2105
     14 H          17.3214   68.3372   -3.6743 H       1  UNL1        0.2106
     15 O          16.0745   70.4511   -7.2621 O.2     1  UNL1       -0.2464
     16 O          19.4192   70.5086  -10.4319 O.2     1  UNL1       -0.2670
     17 N          18.2395   70.9918   -6.5723 N.ar    1  UNL1       -0.2551
     18 N          17.7413   70.4797   -8.8391 N.ar    1  UNL1       -0.2743
     19 C          17.2641   70.6288   -7.5302 C.ar    1  UNL1        0.3323
     20 C          19.5627   71.1751   -6.9583 C.ar    1  UNL1        0.0869
     21 C          20.0018   71.0297   -8.2104 C.ar    1  UNL1        0.0795
     22 C          19.0474   70.6509   -9.2711 C.ar    1  UNL1        0.2626
     23 H          17.0578   70.2184   -9.5445 H       1  UNL1        0.1734
     24 O          22.7189   72.9361   -0.5864 O.3     1  UNL1       -0.2703
     25 P          23.0956   74.3160    0.1664 P.3     1  UNL1        0.2208
     26 O          22.1992   75.4176   -0.6077 O.3     1  UNL1       -0.4371
     27 O          24.5659   74.6212    0.1938 O.2     1  UNL1       -0.5170
     28 O          22.4144   74.1859    1.6235 O.3     1  UNL1       -0.2858
     29 O          23.8948   73.6815    3.3993 O.3     1  UNL1       -0.3226
     30 O          20.1792   73.1197    5.1765 O.3     1  UNL1       -0.3794
     31 O          20.6693   72.2120    2.4485 O.3     1  UNL1       -0.3775
     32 O          22.8108   73.1966    6.0124 O.3     1  UNL1       -0.3792
     33 C          21.1629   73.6871    4.3158 C.3     1  UNL1        0.1718
     34 C          21.6953   72.6300    3.3425 C.3     1  UNL1        0.1968
     35 C          22.3087   74.2383    5.1689 C.3     1  UNL1        0.1723
     36 C          22.8724   73.1836    2.5299 C.3     1  UNL1        0.2706
     37 C          23.4373   74.7224    4.2612 C.3     1  UNL1        0.1830
     38 H          19.8729   73.8220    5.7752 H       1  UNL1        0.2105
     39 H          21.0545   71.5521    1.8477 H       1  UNL1        0.2106
     40 H          23.3247   72.5777    5.4665 H       1  UNL1        0.2106
     41 O          24.2509   75.8033    6.1778 O.co2   1  UNL1       -0.5466
     42 O          25.7941   74.9401    4.7389 O.co2   1  UNL1       -0.5466
     43 C          24.6316   75.1500    5.0536 C.2     1  UNL1        0.0799
@<TRIPOS>UNITY_ATOM_ATTR
41 1
charge -1
@<TRIPOS>BOND
     1     1     4    1
     2     1    24    1
     3     1     2    1
     4     1     3    2
     5    25    28    1
     6    25    24    1
     7    25    26    1
     8    25    27    2
     9     6    11    1
    10     6    12    1
    11    29    36    1
    12    29    37    1
    13     7     9    1
    14     7    13    1
    15     8    10    1
    16     8    14    1
    17     4     5    1
    18    28    36    1
    19    30    33    1
    20    30    38    1
    21    31    34    1
    22    31    39    1
    23    32    35    1
    24    32    40    1
    25    41    43   ar
    26    15    19    2
    27    42    43   ar
    28    16    22    2
    29    17    12    1
    30    17    19   ar
    31    17    20   ar
    32    18    19   ar
    33    18    22   ar
    34    18    23    1
    35     9    10    1
    36     9    11    1
    37    10    12    1
    38    11     5    1
    39    33    34    1
    40    33    35    1
    41    34    36    1
    42    35    37    1
    43    37    43    1
    44    20    21   ar
    45    21    22   ar
@<TRIPOS>MOLECULE
UDP-glaA
 43 45 0 0 0
SMALL
GASTEIGER

@<TRIPOS>ATOM
      1 P          21.6697   73.4645   -5.7202 P.3     1  UNL1        0.2189
      2 O          21.1108   74.8581   -6.3225 O.3     1  UNL1       -0.4371
      3 O          22.6144   72.7205   -6.6180 O.2     1  UNL1       -0.5170
      4 O          20.3333   72.6632   -5.2874 O.3     1  UNL1       -0.3112
      5 C          20.4743   71.4403   -4.5846 C.3     1  UNL1        0.1811
      6 O          18.2557   72.1918   -4.0485 O.3     1  UNL1       -0.3308
      7 O          17.9789   69.6552   -2.4735 O.3     1  UNL1       -0.3794
      8 O          16.6395   69.0752   -4.7768 O.3     1  UNL1       -0.3779
      9 C          18.6656   69.8840   -3.7039 C.3     1  UNL1        0.1713
     10 C          17.6743   70.0348   -4.8384 C.3     1  UNL1        0.1895
     11 C          19.2918   71.2709   -3.6414 C.3     1  UNL1        0.1764
     12 C          17.1693   71.4524   -4.6302 C.3     1  UNL1        0.2383
     13 H          18.6503   69.6044   -1.7720 H       1  UNL1        0.2105
     14 H          17.0537   68.1956   -4.8069 H       1  UNL1        0.2106
     15 O          16.3817   70.0594   -6.9572 O.2     1  UNL1       -0.2464
     16 O          15.7030   73.9743   -9.2920 O.2     1  UNL1       -0.2670
     17 N          16.7812   72.0822   -5.8599 N.ar    1  UNL1       -0.2551
     18 N          16.0448   72.0098   -8.1185 N.ar    1  UNL1       -0.2743
     19 C          16.4037   71.2915   -6.9703 C.ar    1  UNL1        0.3323
     20 C          16.7773   73.4693   -5.9571 C.ar    1  UNL1        0.0869
     21 C          16.4320   74.1393   -7.0588 C.ar    1  UNL1        0.0795
     22 C          16.0256   73.3884   -8.2632 C.ar    1  UNL1        0.2626
     23 H          15.7703   71.4619   -8.9294 H       1  UNL1        0.1734
     24 O          22.3013   73.9109   -4.2999 O.3     1  UNL1       -0.2703
     25 P          23.4342   73.2180   -3.3786 P.3     1  UNL1        0.2208
     26 O          24.7785   74.0269   -3.7722 O.3     1  UNL1       -0.4371
     27 O          23.5362   71.7286   -3.5436 O.2     1  UNL1       -0.5170
     28 O          23.0920   73.7006   -1.8773 O.3     1  UNL1       -0.2858
     29 O          21.7096   72.0104   -0.9653 O.3     1  UNL1       -0.3226
     30 O          22.1468   74.6076    2.2507 O.3     1  UNL1       -0.3794
     31 O          21.7495   75.6431   -0.4467 O.3     1  UNL1       -0.3775
     32 O          21.0840   72.0922    1.8348 O.3     1  UNL1       -0.3792
     33 C          22.4967   73.8951    1.0674 C.3     1  UNL1        0.1718
     34 C          21.5614   74.2793   -0.0841 C.3     1  UNL1        0.1968
     35 C          22.3952   72.3929    1.3457 C.3     1  UNL1        0.1723
     36 C          21.8184   73.3952   -1.3108 C.3     1  UNL1        0.2706
     37 C          22.6277   71.6145    0.0526 C.3     1  UNL1        0.1830
     38 H          22.7616   74.3319    2.9518 H       1  UNL1        0.2105
     39 H          21.1451   75.8370   -1.1829 H       1  UNL1        0.2106
     40 H          20.4584   72.1420    1.0923 H       1  UNL1        0.2106
     41 O          23.5853   69.5183    0.4914 O.co2   1  UNL1       -0.5466
     42 O          21.3248   69.5874    0.2045 O.co2   1  UNL1       -0.5466
     43 C          22.4102   70.1480    0.2499 C.2     1  UNL1        0.0799
@<TRIPOS>UNITY_ATOM_ATTR
41 1
charge -1
@<TRIPOS>BOND
     1     1     4    1
     2     1    24    1
     3     1     2    1
     4     1     3    2
     5    25    28    1
     6    25    24    1
     7    25    26    1
     8    25    27    2
     9     6    11    1
    10     6    12    1
    11    29    36    1
    12    29    37    1
    13     7     9    1
    14     7    13    1
    15     8    10    1
    16     8    14    1
    17     4     5    1
    18    28    36    1
    19    30    33    1
    20    30    38    1
    21    31    34    1
    22    31    39    1
    23    32    35    1
    24    32    40    1
    25    41    43   ar
    26    15    19    2
    27    42    43   ar
    28    16    22    2
    29    17    12    1
    30    17    19   ar
    31    17    20   ar
    32    18    19   ar
    33    18    22   ar
    34    18    23    1
    35     9    10    1
    36     9    11    1
    37    10    12    1
    38    11     5    1
    39    33    34    1
    40    33    35    1
    41    34    36    1
    42    35    37    1
    43    37    43    1
    44    20    21   ar
    45    21    22   ar
@<TRIPOS>MOLECULE
UDP-glaA
 43 45 0 0 0
SMALL
GASTEIGER

@<TRIPOS>ATOM
      1 P          22.2925   73.0120   -4.6025 P.3     1  UNL1        0.2189
      2 O          23.5274   72.1776   -3.9732 O.3     1  UNL1       -0.4371
      3 O          21.8985   74.2377   -3.8315 O.2     1  UNL1       -0.5170
      4 O          21.1325   71.9025   -4.7995 O.3     1  UNL1       -0.3112
      5 C          20.6142   71.2531   -3.6510 C.3     1  UNL1        0.1811
      6 O          18.6653   72.0793   -4.7882 O.3     1  UNL1       -0.3308
      7 O          17.0765   70.8661   -2.5531 O.3     1  UNL1       -0.3794
      8 O          16.7951   69.0295   -4.5490 O.3     1  UNL1       -0.3779
      9 C          18.2696   70.3896   -3.1754 C.3     1  UNL1        0.1713
     10 C          17.9588   69.8303   -4.5478 C.3     1  UNL1        0.1895
     11 C          19.1376   71.5950   -3.5117 C.3     1  UNL1        0.1764
     12 C          17.7987   71.0945   -5.3750 C.3     1  UNL1        0.2383
     13 H          17.3299   71.2494   -1.6961 H       1  UNL1        0.2105
     14 H          16.9373   68.3055   -3.9152 H       1  UNL1        0.2106
     15 O          15.9831   70.4913   -7.4524 O.2     1  UNL1       -0.2464
     16 O          19.3438   70.3767  -10.6038 O.2     1  UNL1       -0.2670
     17 N          18.1716   70.9024   -6.7474 N.ar    1  UNL1       -0.2551
     18 N          17.6579   70.4341   -9.0202 N.ar    1  UNL1       -0.2743
     19 C          17.1825   70.6021   -7.7129 C.ar    1  UNL1        0.3323
     20 C          19.5053   71.0118   -7.1251 C.ar    1  UNL1        0.0869
     21 C          19.9426   70.8493   -8.3758 C.ar    1  UNL1        0.0795
     22 C          18.9740   70.5327   -9.4441 C.ar    1  UNL1        0.2626
     23 H          16.9645   70.2170   -9.7310 H       1  UNL1        0.1734
     24 O          22.7826   73.2976   -6.1169 O.3     1  UNL1       -0.2703
     25 P          22.2726   74.3719   -7.2116 P.3     1  UNL1        0.2208
     26 O          22.5921   73.6457   -8.6211 O.3     1  UNL1       -0.4371
     27 O          22.8818   75.7369   -7.0654 O.2     1  UNL1       -0.5170
     28 O          20.6635   74.3438   -7.0932 O.3     1  UNL1       -0.2858
     29 O          18.9308   75.1750   -8.4739 O.3     1  UNL1       -0.3226
     30 O          17.4128   75.8580   -4.6649 O.3     1  UNL1       -0.3794
     31 O          20.2274   76.3512   -5.2485 O.3     1  UNL1       -0.3775
     32 O          16.4708   76.0153   -7.2568 O.3     1  UNL1       -0.3792
     33 C          18.1343   75.2034   -5.7047 C.3     1  UNL1        0.1718
     34 C          19.2388   76.1174   -6.2460 C.3     1  UNL1        0.1968
     35 C          17.1606   74.8366   -6.8280 C.3     1  UNL1        0.1723
     36 C          19.9073   75.4917   -7.4764 C.3     1  UNL1        0.2706
     37 C          17.9357   74.2627   -8.0121 C.3     1  UNL1        0.1830
     38 H          16.7243   75.2452   -4.3548 H       1  UNL1        0.2105
     39 H          20.9081   76.9249   -5.6389 H       1  UNL1        0.2106
     40 H          17.0859   76.5620   -7.7744 H       1  UNL1        0.2106
     41 O          15.7696   73.7771   -8.7710 O.co2   1  UNL1       -0.5466
     42 O          17.3946   74.0154  -10.3521 O.co2   1  UNL1       -0.5466
     43 C          17.0393   74.0104   -9.1824 C.2     1  UNL1        0.0799
@<TRIPOS>UNITY_ATOM_ATTR
41 1
charge -1
@<TRIPOS>BOND
     1     1     4    1
     2     1    24    1
     3     1     2    1
     4     1     3    2
     5    25    28    1
     6    25    24    1
     7    25    26    1
     8    25    27    2
     9     6    11    1
    10     6    12    1
    11    29    36    1
    12    29    37    1
    13     7     9    1
    14     7    13    1
    15     8    10    1
    16     8    14    1
    17     4     5    1
    18    28    36    1
    19    30    33    1
    20    30    38    1
    21    31    34    1
    22    31    39    1
    23    32    35    1
    24    32    40    1
    25    41    43   ar
    26    15    19    2
    27    42    43   ar
    28    16    22    2
    29    17    12    1
    30    17    19   ar
    31    17    20   ar
    32    18    19   ar
    33    18    22   ar
    34    18    23    1
    35     9    10    1
    36     9    11    1
    37    10    12    1
    38    11     5    1
    39    33    34    1
    40    33    35    1
    41    34    36    1
    42    35    37    1
    43    37    43    1
    44    20    21   ar
    45    21    22   ar
@<TRIPOS>MOLECULE
UDP-glaA
 43 45 0 0 0
SMALL
GASTEIGER

@<TRIPOS>ATOM
      1 P          22.1408   73.2526   -0.7996 P.3     1  UNL1        0.2189
      2 O          23.6142   73.8797   -1.0301 O.3     1  UNL1       -0.4371
      3 O          21.0025   74.1800   -1.1102 O.2     1  UNL1       -0.5170
      4 O          22.1915   72.6843    0.7137 O.3     1  UNL1       -0.3112
      5 C          21.2876   73.2156    1.6675 C.3     1  UNL1        0.1811
      6 O          23.1585   72.8807    3.1378 O.3     1  UNL1       -0.3308
      7 O          21.1645   72.9081    5.3771 O.3     1  UNL1       -0.3794
      8 O          22.2209   75.4195    5.4896 O.3     1  UNL1       -0.3779
      9 C          21.1754   73.6670    4.1681 C.3     1  UNL1        0.1713
     10 C          22.2235   74.7573    4.2418 C.3     1  UNL1        0.1895
     11 C          21.7198   72.7761    3.0592 C.3     1  UNL1        0.1764
     12 C          23.5055   73.9800    3.9959 C.3     1  UNL1        0.2383
     13 H          20.5074   72.1996    5.2686 H       1  UNL1        0.2105
     14 H          21.3336   75.7967    5.6189 H       1  UNL1        0.2106
     15 O          25.9609   74.7092    5.1853 O.2     1  UNL1       -0.2464
     16 O          27.2965   77.0325    1.4360 O.2     1  UNL1       -0.2670
     17 N          24.5134   74.7742    3.3534 N.ar    1  UNL1       -0.2551
     18 N          26.6241   75.8661    3.3177 N.ar    1  UNL1       -0.2743
     19 C          25.7112   75.0850    4.0385 C.ar    1  UNL1        0.3323
     20 C          24.3099   75.2368    2.0580 C.ar    1  UNL1        0.0869
     21 C          25.1903   75.9801    1.3841 C.ar    1  UNL1        0.0795
     22 C          26.4663   76.3498    2.0282 C.ar    1  UNL1        0.2626
     23 H          27.4922   76.1023    3.7908 H       1  UNL1        0.1734
     24 O          22.1760   71.9062   -1.6945 O.3     1  UNL1       -0.2703
     25 P          22.5126   71.6817   -3.2594 P.3     1  UNL1        0.2208
     26 O          23.4095   70.3357   -3.2568 O.3     1  UNL1       -0.4371
     27 O          23.1647   72.8600   -3.9244 O.2     1  UNL1       -0.5170
     28 O          21.1093   71.2360   -3.9197 O.3     1  UNL1       -0.2858
     29 O          18.8144   71.7998   -3.7968 O.3     1  UNL1       -0.3226
     30 O          18.7106   67.6554   -3.4924 O.3     1  UNL1       -0.3794
     31 O          20.7584   69.1928   -2.0963 O.3     1  UNL1       -0.3775
     32 O          16.8672   69.6910   -3.7898 O.3     1  UNL1       -0.3792
     33 C          19.1604   68.9413   -3.9101 C.3     1  UNL1        0.1718
     34 C          19.6061   69.7704   -2.7008 C.3     1  UNL1        0.1968
     35 C          18.0179   69.6525   -4.6403 C.3     1  UNL1        0.1723
     36 C          19.9287   71.2104   -3.1186 C.3     1  UNL1        0.2706
     37 C          18.4327   71.0845   -4.9708 C.3     1  UNL1        0.1830
     38 H          18.4369   67.1677   -4.2879 H       1  UNL1        0.2105
     39 H          21.0083   69.7553   -1.3441 H       1  UNL1        0.2106
     40 H          17.0214   70.3493   -3.0913 H       1  UNL1        0.2106
     41 O          17.6529   72.3642   -6.7759 O.co2   1  UNL1       -0.5466
     42 O          16.2054   72.0133   -5.0500 O.co2   1  UNL1       -0.5466
     43 C          17.3011   71.8578   -5.5695 C.2     1  UNL1        0.0799
@<TRIPOS>UNITY_ATOM_ATTR
41 1
charge -1
@<TRIPOS>BOND
     1     1     4    1
     2     1    24    1
     3     1     2    1
     4     1     3    2
     5    25    28    1
     6    25    24    1
     7    25    26    1
     8    25    27    2
     9     6    11    1
    10     6    12    1
    11    29    36    1
    12    29    37    1
    13     7     9    1
    14     7    13    1
    15     8    10    1
    16     8    14    1
    17     4     5    1
    18    28    36    1
    19    30    33    1
    20    30    38    1
    21    31    34    1
    22    31    39    1
    23    32    35    1
    24    32    40    1
    25    41    43   ar
    26    15    19    2
    27    42    43   ar
    28    16    22    2
    29    17    12    1
    30    17    19   ar
    31    17    20   ar
    32    18    19   ar
    33    18    22   ar
    34    18    23    1
    35     9    10    1
    36     9    11    1
    37    10    12    1
    38    11     5    1
    39    33    34    1
    40    33    35    1
    41    34    36    1
    42    35    37    1
    43    37    43    1
    44    20    21   ar
    45    21    22   ar
@<TRIPOS>MOLECULE
UDP-glaA
 43 45 0 0 0
SMALL
GASTEIGER

@<TRIPOS>ATOM
      1 P          21.3465   71.6394   -3.0540 P.3     1  UNL1        0.2189
      2 O          22.6854   70.9806   -3.6789 O.3     1  UNL1       -0.4371
      3 O          20.5214   70.7145   -2.2079 O.2     1  UNL1       -0.5170
      4 O          20.5938   72.2806   -4.3338 O.3     1  UNL1       -0.3112
      5 C          19.8500   71.4227   -5.1822 C.3     1  UNL1        0.1811
      6 O          17.6172   72.3107   -5.1621 O.3     1  UNL1       -0.3308
      7 O          16.7712   69.6545   -4.0575 O.3     1  UNL1       -0.3794
      8 O          16.0841   69.4515   -6.6885 O.3     1  UNL1       -0.3779
      9 C          17.7814   69.9515   -5.0213 C.3     1  UNL1        0.1713
     10 C          17.1502   70.3138   -6.3490 C.3     1  UNL1        0.1895
     11 C          18.4462   71.2607   -4.6167 C.3     1  UNL1        0.1764
     12 C          16.6911   71.7407   -6.1015 C.3     1  UNL1        0.2383
     13 H          17.2201   69.4672   -3.2155 H       1  UNL1        0.2105
     14 H          16.4386   68.5462   -6.7205 H       1  UNL1        0.2106
     15 O          18.6414   71.5538   -8.1355 O.2     1  UNL1       -0.2464
     16 O          16.5977   74.8315  -10.6491 O.2     1  UNL1       -0.2670
     17 N          16.6929   72.5325   -7.2984 N.ar    1  UNL1       -0.2551
     18 N          17.6227   73.1864   -9.3856 N.ar    1  UNL1       -0.2743
     19 C          17.7188   72.3617   -8.2570 C.ar    1  UNL1        0.3323
     20 C          15.6855   73.4666   -7.5129 C.ar    1  UNL1        0.0869
     21 C          15.6075   74.2451   -8.5945 C.ar    1  UNL1        0.0795
     22 C          16.6403   74.1300   -9.6431 C.ar    1  UNL1        0.2626
     23 H          18.3499   73.0814  -10.0879 H       1  UNL1        0.1734
     24 O          21.9116   72.9397   -2.2760 O.3     1  UNL1       -0.2703
     25 P          21.1475   74.2318   -1.6767 P.3     1  UNL1        0.2208
     26 O          19.5921   73.7888   -1.7037 O.3     1  UNL1       -0.4371
     27 O          21.4401   75.5128   -2.4041 O.2     1  UNL1       -0.5170
     28 O          21.5400   74.2494   -0.1115 O.3     1  UNL1       -0.2858
     29 O          20.9895   72.1447    0.8195 O.3     1  UNL1       -0.3226
     30 O          22.4567   74.2007    4.1210 O.3     1  UNL1       -0.3794
     31 O          20.7275   75.5387    2.1907 O.3     1  UNL1       -0.3775
     32 O          21.7032   71.6059    3.5469 O.3     1  UNL1       -0.3792
     33 C          22.3297   73.8018    2.7590 C.3     1  UNL1        0.1718
     34 C          20.9277   74.1298    2.2345 C.3     1  UNL1        0.1968
     35 C          22.5878   72.2959    2.6579 C.3     1  UNL1        0.1723
     36 C          20.7245   73.5514    0.8286 C.3     1  UNL1        0.2706
     37 C          22.3173   71.8235    1.2310 C.3     1  UNL1        0.1830
     38 H          23.3563   73.9722    4.4109 H       1  UNL1        0.2105
     39 H          19.8331   75.6973    1.8447 H       1  UNL1        0.2106
     40 H          20.8085   71.6229    3.1671 H       1  UNL1        0.2106
     41 O          23.5212   69.8873    1.7839 O.co2   1  UNL1       -0.5466
     42 O          21.6513   69.6183    0.5079 O.co2   1  UNL1       -0.5466
     43 C          22.4314   70.3367    1.1160 C.2     1  UNL1        0.0799
@<TRIPOS>UNITY_ATOM_ATTR
41 1
charge -1
@<TRIPOS>BOND
     1     1     4    1
     2     1    24    1
     3     1     2    1
     4     1     3    2
     5    25    28    1
     6    25    24    1
     7    25    26    1
     8    25    27    2
     9     6    11    1
    10     6    12    1
    11    29    36    1
    12    29    37    1
    13     7     9    1
    14     7    13    1
    15     8    10    1
    16     8    14    1
    17     4     5    1
    18    28    36    1
    19    30    33    1
    20    30    38    1
    21    31    34    1
    22    31    39    1
    23    32    35    1
    24    32    40    1
    25    41    43   ar
    26    15    19    2
    27    42    43   ar
    28    16    22    2
    29    17    12    1
    30    17    19   ar
    31    17    20   ar
    32    18    19   ar
    33    18    22   ar
    34    18    23    1
    35     9    10    1
    36     9    11    1
    37    10    12    1
    38    11     5    1
    39    33    34    1
    40    33    35    1
    41    34    36    1
    42    35    37    1
    43    37    43    1
    44    20    21   ar
    45    21    22   ar
