@<TRIPOS>MOLECULE
UD1
 46 48 0 0 0
SMALL
GASTEIGER

@<TRIPOS>ATOM
      1 P          20.9043   71.5252   -2.5784 P.3     1  UNL1        0.2189
      2 O          20.2306   72.4187   -1.6107 O.2     1  UNL1       -0.5170
      3 O          21.5779   72.4075   -3.7448 O.3     1  UNL1       -0.4371
      4 O          19.8233   70.5208   -3.2231 O.3     1  UNL1       -0.3112
      5 C          18.6293   70.6457   -2.4492 C.3     1  UNL1        0.1811
      6 C          17.0029   70.4941   -5.6522 C.3     1  UNL1        0.2383
      7 C          16.9366   69.0428   -5.1141 C.3     1  UNL1        0.1895
      8 O          15.7690   68.3735   -5.5916 O.3     1  UNL1       -0.3779
      9 C          16.8581   69.2670   -3.5816 C.3     1  UNL1        0.1713
     10 C          17.4180   70.6887   -3.3820 C.3     1  UNL1        0.1764
     11 O          17.8131   71.1801   -4.6741 O.3     1  UNL1       -0.3308
     12 O          15.5033   69.1883   -3.1331 O.3     1  UNL1       -0.3794
     13 H          15.7879   67.4796   -5.2227 H       1  UNL1        0.2106
     14 H          15.1922   68.2968   -3.3393 H       1  UNL1        0.2105
     15 N          17.6409   70.5314   -6.9686 N.ar    1  UNL1       -0.2551
     16 C          16.8824   70.4927   -8.0779 C.ar    1  UNL1        0.3323
     17 N          17.4420   70.5295   -9.3018 N.ar    1  UNL1       -0.2743
     18 C          18.7820   70.5969   -9.4345 C.ar    1  UNL1        0.2626
     19 C          19.5927   70.6322   -8.2750 C.ar    1  UNL1        0.0795
     20 C          19.0050   70.5994   -7.0597 C.ar    1  UNL1        0.0869
     21 O          15.6724   70.4320   -7.9746 O.2     1  UNL1       -0.2464
     22 O          19.2893   70.6254  -10.5405 O.2     1  UNL1       -0.2670
     23 H          16.8794   70.5056  -10.0912 H       1  UNL1        0.1734
     24 O          22.0421   70.6753   -1.8221 O.3     1  UNL1       -0.2703
     25 P          22.1595   71.2765   -0.3342 P.3     1  UNL1        0.2208
     26 O          23.4272   70.8259    0.2812 O.2     1  UNL1       -0.5170
     27 O          20.9196   70.7599    0.5535 O.3     1  UNL1       -0.4371
     28 O          22.1370   72.8845   -0.4004 O.3     1  UNL1       -0.2865
     29 C          23.4072   73.3366    0.0723 C.3     1  UNL1        0.2611
     30 C          23.2131   74.6007    0.9115 C.3     1  UNL1        0.1582
     31 C          22.5423   75.6763    0.0498 C.3     1  UNL1        0.1625
     32 C          23.3649   75.8630   -1.2295 C.3     1  UNL1        0.1686
     33 C          23.5450   74.5038   -1.9089 C.3     1  UNL1        0.1760
     34 O          22.4911   76.9069    0.7740 O.3     1  UNL1       -0.3801
     35 O          22.6800   76.7533   -2.1125 O.3     1  UNL1       -0.3794
     36 O          24.2531   73.6205   -1.0400 O.3     1  UNL1       -0.3263
     37 H          22.0625   77.5534    0.1963 H       1  UNL1        0.2105
     38 H          23.2309   76.8418   -2.9032 H       1  UNL1        0.2105
     39 C          22.6612   74.8106    3.2749 C.2     1  UNL1        0.2231
     40 C          21.7876   74.4972    4.4628 C.3     1  UNL1        0.0946
     41 N          22.3644   74.2969    2.0656 N.am    1  UNL1       -0.2994
     42 O          23.6320   75.5247    3.4079 O.2     1  UNL1       -0.2751
     43 H          21.5877   73.7252    1.9590 H       1  UNL1        0.1496
     44 C          24.3380   74.6840   -3.2050 C.3     1  UNL1        0.1693
     45 O          24.4771   73.4208   -3.8584 O.3     1  UNL1       -0.3794
     46 H          24.9814   73.5785   -4.6679 H       1  UNL1        0.2105
@<TRIPOS>BOND
     1    29    30    1
     2    29    28    1
     3    29    36    1
     4    30    31    1
     5    30    41    1
     6    31    32    1
     7    31    34    1
     8    32    33    1
     9    32    35    1
    10    33    44    1
    11    33    36    1
    12    44    45    1
    13    39    40    1
    14    39    41   am
    15    39    42    2
    16    41    43    1
    17    28    25    1
    18    34    37    1
    19    35    38    1
    20    45    46    1
    21    15    16   ar
    22    15    20   ar
    23    15     6    1
    24    16    17   ar
    25    16    21    2
    26    17    18   ar
    27    17    23    1
    28    18    19   ar
    29    18    22    2
    30    19    20   ar
    31     6     7    1
    32     6    11    1
    33     7     8    1
    34     7     9    1
    35     8    13    1
    36     9    10    1
    37     9    12    1
    38    10    11    1
    39    10     5    1
    40    12    14    1
    41     5     4    1
    42     4     1    1
    43     1     2    2
    44     1     3    1
    45     1    24    1
    46    24    25    1
    47    25    26    2
    48    25    27    1
@<TRIPOS>MOLECULE
UD1
 46 48 0 0 0
SMALL
GASTEIGER

@<TRIPOS>ATOM
      1 P          21.8221   71.2694   -2.7946 P.3     1  UNL1        0.2189
      2 O          23.1245   70.6704   -3.1600 O.2     1  UNL1       -0.5170
      3 O          21.6103   71.1629   -1.2020 O.3     1  UNL1       -0.4371
      4 O          20.6383   70.4781   -3.5465 O.3     1  UNL1       -0.3112
      5 C          19.5346   70.4267   -2.6411 C.3     1  UNL1        0.1811
      6 C          17.5160   70.4796   -5.6160 C.3     1  UNL1        0.2383
      7 C          17.3579   69.0402   -5.0651 C.3     1  UNL1        0.1895
      8 O          16.0735   68.5070   -5.3896 O.3     1  UNL1       -0.3779
      9 C          17.4957   69.2598   -3.5361 C.3     1  UNL1        0.1713
     10 C          18.2289   70.6098   -3.4163 C.3     1  UNL1        0.1764
     11 O          18.5121   71.0648   -4.7505 O.3     1  UNL1       -0.3308
     12 O          16.2068   69.3270   -2.9221 O.3     1  UNL1       -0.3794
     13 H          16.0397   67.6136   -5.0205 H       1  UNL1        0.2106
     14 H          15.7763   68.4767   -3.0826 H       1  UNL1        0.2105
     15 N          17.9856   70.4567   -7.0017 N.ar    1  UNL1       -0.2551
     16 C          17.0961   70.3611   -8.0052 C.ar    1  UNL1        0.3323
     17 N          17.4993   70.3418   -9.2894 N.ar    1  UNL1       -0.2743
     18 C          18.8118   70.4093   -9.5906 C.ar    1  UNL1        0.2626
     19 C          19.7594   70.5041   -8.5437 C.ar    1  UNL1        0.0795
     20 C          19.3272   70.5268   -7.2647 C.ar    1  UNL1        0.0869
     21 O          15.9089   70.2996   -7.7496 O.2     1  UNL1       -0.2464
     22 O          19.1778   70.3871  -10.7512 O.2     1  UNL1       -0.2670
     23 H          16.8436   70.2773  -10.0008 H       1  UNL1        0.1734
     24 O          21.7994   72.8160   -3.2377 O.3     1  UNL1       -0.2703
     25 P          22.6714   72.9263   -4.5855 P.3     1  UNL1        0.2208
     26 O          22.3473   71.7908   -5.4769 O.2     1  UNL1       -0.5170
     27 O          24.2381   72.8876   -4.2166 O.3     1  UNL1       -0.4371
     28 O          22.3319   74.3100   -5.3342 O.3     1  UNL1       -0.2865
     29 C          22.0159   73.9819   -6.6884 C.3     1  UNL1        0.2611
     30 C          22.4317   75.1390   -7.5985 C.3     1  UNL1        0.1582
     31 C          21.6930   76.4096   -7.1631 C.3     1  UNL1        0.1625
     32 C          20.1897   76.1150   -7.1284 C.3     1  UNL1        0.1686
     33 C          19.9428   74.8859   -6.2511 C.3     1  UNL1        0.1760
     34 O          21.9572   77.4601   -8.0948 O.3     1  UNL1       -0.3801
     35 O          19.4948   77.2391   -6.5852 O.3     1  UNL1       -0.3794
     36 O          20.6131   73.7549   -6.8060 O.3     1  UNL1       -0.3263
     37 H          21.4746   78.2380   -7.7829 H       1  UNL1        0.2105
     38 H          18.5543   77.0112   -6.5808 H       1  UNL1        0.2105
     39 C          24.5878   75.7075   -8.5794 C.2     1  UNL1        0.2231
     40 C          26.0754   75.9250   -8.4698 C.3     1  UNL1        0.0946
     41 N          23.8768   75.3509   -7.4925 N.am    1  UNL1       -0.2994
     42 O          24.0308   75.8530   -9.6465 O.2     1  UNL1       -0.2751
     43 H          24.3223   75.2342   -6.6384 H       1  UNL1        0.1496
     44 C          18.4407   74.6025   -6.1835 C.3     1  UNL1        0.1693
     45 O          18.1517   73.8398   -5.0101 O.3     1  UNL1       -0.3794
     46 H          17.1978   73.6832   -5.0061 H       1  UNL1        0.2105
@<TRIPOS>BOND
     1    29    30    1
     2    29    28    1
     3    29    36    1
     4    30    31    1
     5    30    41    1
     6    31    32    1
     7    31    34    1
     8    32    33    1
     9    32    35    1
    10    33    44    1
    11    33    36    1
    12    44    45    1
    13    39    40    1
    14    39    41   am
    15    39    42    2
    16    41    43    1
    17    28    25    1
    18    34    37    1
    19    35    38    1
    20    45    46    1
    21    15    16   ar
    22    15    20   ar
    23    15     6    1
    24    16    17   ar
    25    16    21    2
    26    17    18   ar
    27    17    23    1
    28    18    19   ar
    29    18    22    2
    30    19    20   ar
    31     6     7    1
    32     6    11    1
    33     7     8    1
    34     7     9    1
    35     8    13    1
    36     9    10    1
    37     9    12    1
    38    10    11    1
    39    10     5    1
    40    12    14    1
    41     5     4    1
    42     4     1    1
    43     1     2    2
    44     1     3    1
    45     1    24    1
    46    24    25    1
    47    25    26    2
    48    25    27    1
@<TRIPOS>MOLECULE
UD1
 46 48 0 0 0
SMALL
GASTEIGER

@<TRIPOS>ATOM
      1 P          21.1362   71.8003   -1.8586 P.3     1  UNL1        0.2189
      2 O          21.7581   73.1202   -2.1033 O.2     1  UNL1       -0.5170
      3 O          22.2733   70.6605   -1.8717 O.3     1  UNL1       -0.4371
      4 O          20.0571   71.4937   -3.0138 O.3     1  UNL1       -0.3112
      5 C          19.0443   70.6749   -2.4273 C.3     1  UNL1        0.1811
      6 C          17.2121   70.5330   -5.5177 C.3     1  UNL1        0.2383
      7 C          17.1445   69.0893   -4.9596 C.3     1  UNL1        0.1895
      8 O          15.9323   68.4454   -5.3536 O.3     1  UNL1       -0.3779
      9 C          17.1703   69.3307   -3.4279 C.3     1  UNL1        0.1713
     10 C          17.7770   70.7396   -3.2811 C.3     1  UNL1        0.1764
     11 O          18.1004   71.2078   -4.6015 O.3     1  UNL1       -0.3308
     12 O          15.8456   69.2912   -2.8928 O.3     1  UNL1       -0.3794
     13 H          15.9526   67.5550   -4.9763 H       1  UNL1        0.2106
     14 H          15.4998   68.4059   -3.0683 H       1  UNL1        0.2105
     15 N          17.7649   70.5408   -6.8726 N.ar    1  UNL1       -0.2551
     16 C          16.9440   70.4005   -7.9279 C.ar    1  UNL1        0.3323
     17 N          17.4243   70.4079   -9.1855 N.ar    1  UNL1       -0.2743
     18 C          18.7470   70.5479   -9.4069 C.ar    1  UNL1        0.2626
     19 C          19.6232   70.6904   -8.3047 C.ar    1  UNL1        0.0795
     20 C          19.1141   70.6849   -7.0541 C.ar    1  UNL1        0.0869
     21 O          15.7487   70.2734   -7.7445 O.2     1  UNL1       -0.2464
     22 O          19.1829   70.5499  -10.5433 O.2     1  UNL1       -0.2670
     23 H          16.8172   70.3103   -9.9352 H       1  UNL1        0.1734
     24 O          20.4014   71.8103   -0.4272 O.3     1  UNL1       -0.2703
     25 P          21.5531   71.6671    0.6875 P.3     1  UNL1        0.2208
     26 O          21.7395   70.2383    1.0231 O.2     1  UNL1       -0.5170
     27 O          21.1235   72.4769    2.0111 O.3     1  UNL1       -0.4371
     28 O          22.9324   72.2684    0.1162 O.3     1  UNL1       -0.2865
     29 C          23.2806   73.3734    0.9523 C.3     1  UNL1        0.2611
     30 C          23.5485   72.8683    2.3712 C.3     1  UNL1        0.1582
     31 C          22.2925   72.1654    2.8985 C.3     1  UNL1        0.1625
     32 C          21.1019   73.1201    2.7602 C.3     1  UNL1        0.1686
     33 C          21.0168   73.6038    1.3110 C.3     1  UNL1        0.1760
     34 O          22.4776   71.8216    4.2729 O.3     1  UNL1       -0.3801
     35 O          19.8972   72.4354    3.1085 O.3     1  UNL1       -0.3794
     36 O          22.2073   74.3121    0.9684 O.3     1  UNL1       -0.3263
     37 H          21.6660   71.3827    4.5628 H       1  UNL1        0.2105
     38 H          19.1747   73.0711    3.0070 H       1  UNL1        0.2105
     39 C          25.9102   72.3445    2.6576 C.2     1  UNL1        0.2231
     40 C          27.0620   71.3722    2.6372 C.3     1  UNL1        0.0946
     41 N          24.6676   71.9241    2.3520 N.am    1  UNL1       -0.2994
     42 O          26.1022   73.5058    2.9486 O.2     1  UNL1       -0.2751
     43 H          24.5137   70.9949    2.1188 H       1  UNL1        0.1496
     44 C          19.8111   74.5329    1.1547 C.3     1  UNL1        0.1693
     45 O          18.7654   73.8450    0.4653 O.3     1  UNL1       -0.3794
     46 H          18.0269   74.4640    0.3877 H       1  UNL1        0.2105
@<TRIPOS>BOND
     1    29    30    1
     2    29    28    1
     3    29    36    1
     4    30    31    1
     5    30    41    1
     6    31    32    1
     7    31    34    1
     8    32    33    1
     9    32    35    1
    10    33    44    1
    11    33    36    1
    12    44    45    1
    13    39    40    1
    14    39    41   am
    15    39    42    2
    16    41    43    1
    17    28    25    1
    18    34    37    1
    19    35    38    1
    20    45    46    1
    21    15    16   ar
    22    15    20   ar
    23    15     6    1
    24    16    17   ar
    25    16    21    2
    26    17    18   ar
    27    17    23    1
    28    18    19   ar
    29    18    22    2
    30    19    20   ar
    31     6     7    1
    32     6    11    1
    33     7     8    1
    34     7     9    1
    35     8    13    1
    36     9    10    1
    37     9    12    1
    38    10    11    1
    39    10     5    1
    40    12    14    1
    41     5     4    1
    42     4     1    1
    43     1     2    2
    44     1     3    1
    45     1    24    1
    46    24    25    1
    47    25    26    2
    48    25    27    1
@<TRIPOS>MOLECULE
UD1
 46 48 0 0 0
SMALL
GASTEIGER

@<TRIPOS>ATOM
      1 P          23.2494   71.9145   -2.8317 P.3     1  UNL1        0.2189
      2 O          23.9766   73.2010   -2.9014 O.2     1  UNL1       -0.5170
      3 O          24.2767   70.7025   -3.0930 O.3     1  UNL1       -0.4371
      4 O          22.0951   71.8896   -3.9541 O.3     1  UNL1       -0.3112
      5 C          22.3774   72.9558   -4.8618 C.3     1  UNL1        0.1811
      6 C          19.5603   71.7743   -6.7579 C.3     1  UNL1        0.2383
      7 C          19.1704   73.2142   -6.3397 C.3     1  UNL1        0.1895
      8 O          18.3216   73.8180   -7.3165 O.3     1  UNL1       -0.3779
      9 C          20.5487   73.9234   -6.2899 C.3     1  UNL1        0.1713
     10 C          21.5584   72.7691   -6.1399 C.3     1  UNL1        0.1764
     11 O          20.8054   71.5467   -6.0639 O.3     1  UNL1       -0.3308
     12 O          20.7828   74.6475   -7.4997 O.3     1  UNL1       -0.3794
     13 H          18.1161   74.7077   -6.9975 H       1  UNL1        0.2106
     14 H          20.0858   75.3138   -7.5656 H       1  UNL1        0.2105
     15 N          18.5446   70.8143   -6.3242 N.ar    1  UNL1       -0.2551
     16 C          17.5948   70.4137   -7.1872 C.ar    1  UNL1        0.3323
     17 N          16.6504   69.5287   -6.8168 N.ar    1  UNL1       -0.2743
     18 C          16.6372   69.0342   -5.5625 C.ar    1  UNL1        0.2626
     19 C          17.6277   69.4520   -4.6420 C.ar    1  UNL1        0.0795
     20 C          18.5663   70.3366   -5.0416 C.ar    1  UNL1        0.0869
     21 O          17.5935   70.8507   -8.3219 O.2     1  UNL1       -0.2464
     22 O          15.7810   68.2377   -5.2251 O.2     1  UNL1       -0.2670
     23 H          15.9758   69.2472   -7.4538 H       1  UNL1        0.1734
     24 O          22.5851   71.7516   -1.3753 O.3     1  UNL1       -0.2703
     25 P          22.4832   73.2279   -0.7432 P.3     1  UNL1        0.2208
     26 O          21.7163   74.1035   -1.6563 O.2     1  UNL1       -0.5170
     27 O          23.9630   73.8292   -0.5411 O.3     1  UNL1       -0.4371
     28 O          21.7370   73.1529    0.6809 O.3     1  UNL1       -0.2865
     29 C          22.1327   74.3112    1.4178 C.3     1  UNL1        0.2611
     30 C          22.6962   73.8796    2.7728 C.3     1  UNL1        0.1582
     31 C          21.6229   73.0941    3.5348 C.3     1  UNL1        0.1625
     32 C          20.3481   73.9419    3.5989 C.3     1  UNL1        0.1686
     33 C          19.9600   74.3663    2.1810 C.3     1  UNL1        0.1760
     34 O          22.0832   72.8147    4.8582 O.3     1  UNL1       -0.3801
     35 O          19.2910   73.1725    4.1752 O.3     1  UNL1       -0.3794
     36 O          21.0022   75.1581    1.6124 O.3     1  UNL1       -0.3263
     37 H          21.3791   72.3206    5.3004 H       1  UNL1        0.2105
     38 H          18.5092   73.7426    4.1958 H       1  UNL1        0.2105
     39 C          23.7331   71.6931    2.4927 C.2     1  UNL1        0.2231
     40 C          24.9435   70.8198    2.2811 C.3     1  UNL1        0.0946
     41 N          23.8716   73.0308    2.5667 N.am    1  UNL1       -0.2994
     42 O          22.6343   71.1913    2.5971 O.2     1  UNL1       -0.2751
     43 H          24.7510   73.4326    2.4835 H       1  UNL1        0.1496
     44 C          18.6694   75.1866    2.2307 C.3     1  UNL1        0.1693
     45 O          18.4892   75.7126    3.5472 O.3     1  UNL1       -0.3794
     46 H          17.6671   76.2211    3.5353 H       1  UNL1        0.2105
@<TRIPOS>BOND
     1    29    30    1
     2    29    28    1
     3    29    36    1
     4    30    31    1
     5    30    41    1
     6    31    32    1
     7    31    34    1
     8    32    33    1
     9    32    35    1
    10    33    44    1
    11    33    36    1
    12    44    45    1
    13    39    40    1
    14    39    41   am
    15    39    42    2
    16    41    43    1
    17    28    25    1
    18    34    37    1
    19    35    38    1
    20    45    46    1
    21    15    16   ar
    22    15    20   ar
    23    15     6    1
    24    16    17   ar
    25    16    21    2
    26    17    18   ar
    27    17    23    1
    28    18    19   ar
    29    18    22    2
    30    19    20   ar
    31     6     7    1
    32     6    11    1
    33     7     8    1
    34     7     9    1
    35     8    13    1
    36     9    10    1
    37     9    12    1
    38    10    11    1
    39    10     5    1
    40    12    14    1
    41     5     4    1
    42     4     1    1
    43     1     2    2
    44     1     3    1
    45     1    24    1
    46    24    25    1
    47    25    26    2
    48    25    27    1
@<TRIPOS>MOLECULE
UD1
 46 48 0 0 0
SMALL
GASTEIGER

@<TRIPOS>ATOM
      1 P          20.6767   71.4314   -1.2388 P.3     1  UNL1        0.2189
      2 O          20.9927   72.8730   -1.1352 O.2     1  UNL1       -0.5170
      3 O          21.5305   70.7797   -2.4383 O.3     1  UNL1       -0.4371
      4 O          19.1053   71.2473   -1.5382 O.3     1  UNL1       -0.3112
      5 C          18.9880   70.2039   -2.5067 C.3     1  UNL1        0.1811
      6 C          17.1978   70.4243   -5.6170 C.3     1  UNL1        0.2383
      7 C          16.9819   68.9638   -5.1475 C.3     1  UNL1        0.1895
      8 O          15.7191   68.4658   -5.5909 O.3     1  UNL1       -0.3779
      9 C          17.0078   69.1107   -3.6039 C.3     1  UNL1        0.1713
     10 C          17.7461   70.4424   -3.3669 C.3     1  UNL1        0.1764
     11 O          18.1333   70.9538   -4.6536 O.3     1  UNL1       -0.3308
     12 O          15.6776   69.1694   -3.0845 O.3     1  UNL1       -0.3794
     13 H          15.6473   67.5570   -5.2676 H       1  UNL1        0.2106
     14 H          15.2502   68.3341   -3.3161 H       1  UNL1        0.2105
     15 N          17.7692   70.4579   -6.9638 N.ar    1  UNL1       -0.2551
     16 C          16.9551   70.4420   -8.0335 C.ar    1  UNL1        0.3323
     17 N          17.4529   70.4761   -9.2839 N.ar    1  UNL1       -0.2743
     18 C          18.7856   70.5177   -9.4838 C.ar    1  UNL1        0.2626
     19 C          19.6543   70.5289   -8.3666 C.ar    1  UNL1        0.0795
     20 C          19.1281   70.4994   -7.1234 C.ar    1  UNL1        0.0869
     21 O          15.7509   70.4047   -7.8695 O.2     1  UNL1       -0.2464
     22 O          19.2369   70.5437  -10.6139 O.2     1  UNL1       -0.2670
     23 H          16.8508   70.4688  -10.0439 H       1  UNL1        0.1734
     24 O          21.0484   70.6997    0.1451 O.3     1  UNL1       -0.2703
     25 P          22.5504   71.1421    0.5160 P.3     1  UNL1        0.2208
     26 O          23.2683   71.5326   -0.7173 O.2     1  UNL1       -0.5170
     27 O          23.3164   69.9102    1.2147 O.3     1  UNL1       -0.4371
     28 O          22.5084   72.3908    1.5306 O.3     1  UNL1       -0.2865
     29 C          22.6746   71.8611    2.8470 C.3     1  UNL1        0.2611
     30 C          22.1908   72.8901    3.8703 C.3     1  UNL1        0.1582
     31 C          22.9973   74.1825    3.7013 C.3     1  UNL1        0.1625
     32 C          24.4896   73.8422    3.7744 C.3     1  UNL1        0.1686
     33 C          24.8006   72.7433    2.7560 C.3     1  UNL1        0.1760
     34 O          22.6598   75.0976    4.7453 O.3     1  UNL1       -0.3801
     35 O          25.2608   75.0068    3.4735 O.3     1  UNL1       -0.3794
     36 O          24.0525   71.5693    3.0699 O.3     1  UNL1       -0.3263
     37 H          23.1884   75.8944    4.6003 H       1  UNL1        0.2105
     38 H          26.1916   74.7482    3.5300 H       1  UNL1        0.2105
     39 C          20.3949   74.2076    2.8839 C.2     1  UNL1        0.2231
     40 C          18.9316   74.4923    2.6603 C.3     1  UNL1        0.0946
     41 N          20.7694   73.1668    3.6524 N.am    1  UNL1       -0.2994
     42 O          21.2354   74.9162    2.3724 O.2     1  UNL1       -0.2751
     43 H          20.0969   72.5997    4.0620 H       1  UNL1        0.1496
     44 C          26.2953   72.4187    2.7983 C.3     1  UNL1        0.1693
     45 O          26.4939   71.0428    2.4676 O.3     1  UNL1       -0.3794
     46 H          27.4461   70.8803    2.5060 H       1  UNL1        0.2105
@<TRIPOS>BOND
     1    29    30    1
     2    29    28    1
     3    29    36    1
     4    30    31    1
     5    30    41    1
     6    31    32    1
     7    31    34    1
     8    32    33    1
     9    32    35    1
    10    33    44    1
    11    33    36    1
    12    44    45    1
    13    39    40    1
    14    39    41   am
    15    39    42    2
    16    41    43    1
    17    28    25    1
    18    34    37    1
    19    35    38    1
    20    45    46    1
    21    15    16   ar
    22    15    20   ar
    23    15     6    1
    24    16    17   ar
    25    16    21    2
    26    17    18   ar
    27    17    23    1
    28    18    19   ar
    29    18    22    2
    30    19    20   ar
    31     6     7    1
    32     6    11    1
    33     7     8    1
    34     7     9    1
    35     8    13    1
    36     9    10    1
    37     9    12    1
    38    10    11    1
    39    10     5    1
    40    12    14    1
    41     5     4    1
    42     4     1    1
    43     1     2    2
    44     1     3    1
    45     1    24    1
    46    24    25    1
    47    25    26    2
    48    25    27    1
@<TRIPOS>MOLECULE
UD1
 46 48 0 0 0
SMALL
GASTEIGER

@<TRIPOS>ATOM
      1 P          20.6669   71.3816   -1.8523 P.3     1  UNL1        0.2189
      2 O          20.0733   70.8772   -0.5945 O.2     1  UNL1       -0.5170
      3 O          20.5665   72.9883   -1.8866 O.3     1  UNL1       -0.4371
      4 O          19.8658   70.7680   -3.1071 O.3     1  UNL1       -0.3112
      5 C          18.7001   70.1307   -2.5823 C.3     1  UNL1        0.1811
      6 C          17.0949   70.4035   -5.7880 C.3     1  UNL1        0.2383
      7 C          16.8343   68.9415   -5.3465 C.3     1  UNL1        0.1895
      8 O          15.5931   68.4640   -5.8667 O.3     1  UNL1       -0.3779
      9 C          16.7730   69.0736   -3.8025 C.3     1  UNL1        0.1713
     10 C          17.5128   70.3933   -3.5100 C.3     1  UNL1        0.1764
     11 O          17.9799   70.9117   -4.7671 O.3     1  UNL1       -0.3308
     12 O          15.4158   69.1446   -3.3599 O.3     1  UNL1       -0.3794
     13 H          15.4914   67.5533   -5.5574 H       1  UNL1        0.2106
     14 H          14.9923   68.3171   -3.6242 H       1  UNL1        0.2105
     15 N          17.7434   70.4423   -7.0992 N.ar    1  UNL1       -0.2551
     16 C          16.9920   70.4964   -8.2128 C.ar    1  UNL1        0.3323
     17 N          17.5615   70.5371   -9.4319 N.ar    1  UNL1       -0.2743
     18 C          18.9039   70.5146   -9.5559 C.ar    1  UNL1        0.2626
     19 C          19.7067   70.4516   -8.3921 C.ar    1  UNL1        0.0795
     20 C          19.1095   70.4173   -7.1815 C.ar    1  UNL1        0.0869
     21 O          15.7800   70.5174   -8.1173 O.2     1  UNL1       -0.2464
     22 O          19.4198   70.5464  -10.6578 O.2     1  UNL1       -0.2670
     23 H          17.0043   70.5808  -10.2242 H       1  UNL1        0.1734
     24 O          22.2113   70.9376   -1.9328 O.3     1  UNL1       -0.2703
     25 P          23.0435   72.2326   -2.4017 P.3     1  UNL1        0.2208
     26 O          22.1166   73.2339   -2.9737 O.2     1  UNL1       -0.5170
     27 O          24.1228   71.8031   -3.5166 O.3     1  UNL1       -0.4371
     28 O          23.8063   72.8693   -1.1356 O.3     1  UNL1       -0.2865
     29 C          22.8748   72.8792   -0.0524 C.3     1  UNL1        0.2611
     30 C          22.7878   74.2926    0.5260 C.3     1  UNL1        0.1582
     31 C          24.1784   74.7249    1.0043 C.3     1  UNL1        0.1625
     32 C          24.7197   73.6599    1.9640 C.3     1  UNL1        0.1686
     33 C          24.6637   72.2944    1.2758 C.3     1  UNL1        0.1760
     34 O          24.0834   75.9799    1.6808 O.3     1  UNL1       -0.3801
     35 O          26.0719   73.9687    2.3072 O.3     1  UNL1       -0.3794
     36 O          23.3111   71.9706    0.9563 O.3     1  UNL1       -0.3263
     37 H          24.9783   76.2133    1.9635 H       1  UNL1        0.2105
     38 H          26.3729   73.2744    2.9104 H       1  UNL1        0.2105
     39 C          23.1999   75.9305   -1.2295 C.2     1  UNL1        0.2231
     40 C          22.7129   76.8818   -2.2926 C.3     1  UNL1        0.0946
     41 N          22.3152   75.2165   -0.5072 N.am    1  UNL1       -0.2994
     42 O          24.3886   75.8082   -1.0238 O.2     1  UNL1       -0.2751
     43 H          21.3639   75.3144   -0.6714 H       1  UNL1        0.1496
     44 C          25.2325   71.2281    2.2142 C.3     1  UNL1        0.1693
     45 O          24.6921   69.9513    1.8683 O.3     1  UNL1       -0.3794
     46 H          25.0747   69.3098    2.4820 H       1  UNL1        0.2105
@<TRIPOS>BOND
     1    29    30    1
     2    29    28    1
     3    29    36    1
     4    30    31    1
     5    30    41    1
     6    31    32    1
     7    31    34    1
     8    32    33    1
     9    32    35    1
    10    33    44    1
    11    33    36    1
    12    44    45    1
    13    39    40    1
    14    39    41   am
    15    39    42    2
    16    41    43    1
    17    28    25    1
    18    34    37    1
    19    35    38    1
    20    45    46    1
    21    15    16   ar
    22    15    20   ar
    23    15     6    1
    24    16    17   ar
    25    16    21    2
    26    17    18   ar
    27    17    23    1
    28    18    19   ar
    29    18    22    2
    30    19    20   ar
    31     6     7    1
    32     6    11    1
    33     7     8    1
    34     7     9    1
    35     8    13    1
    36     9    10    1
    37     9    12    1
    38    10    11    1
    39    10     5    1
    40    12    14    1
    41     5     4    1
    42     4     1    1
    43     1     2    2
    44     1     3    1
    45     1    24    1
    46    24    25    1
    47    25    26    2
    48    25    27    1
@<TRIPOS>MOLECULE
UD1
 46 48 0 0 0
SMALL
GASTEIGER

@<TRIPOS>ATOM
      1 P          16.4511   69.5835   -2.7587 P.3     1  UNL1        0.2189
      2 O          15.9047   69.0600   -4.0300 O.2     1  UNL1       -0.5170
      3 O          17.1982   68.3973   -1.9668 O.3     1  UNL1       -0.4371
      4 O          15.2486   70.1570   -1.8542 O.3     1  UNL1       -0.3112
      5 C          15.0455   69.2213   -0.7942 C.3     1  UNL1        0.1811
      6 C          12.1820   68.0594    1.0437 C.3     1  UNL1        0.2383
      7 C          12.4301   69.4927    1.5770 C.3     1  UNL1        0.1895
      8 O          11.2055   70.1078    1.9784 O.3     1  UNL1       -0.3779
      9 C          13.0253   70.2041    0.3340 C.3     1  UNL1        0.1713
     10 C          13.5463   69.0500   -0.5441 C.3     1  UNL1        0.1764
     11 O          13.3065   67.8251    0.1695 O.3     1  UNL1       -0.3308
     12 O          12.0130   70.9449   -0.3510 O.3     1  UNL1       -0.3794
     13 H          11.4284   70.9926    2.2991 H       1  UNL1        0.2106
     14 H          11.6863   71.6105    0.2690 H       1  UNL1        0.2105
     15 N          12.1710   67.0915    2.1412 N.ar    1  UNL1       -0.2551
     16 C          13.3330   66.6164    2.6223 C.ar    1  UNL1        0.3323
     17 N          13.3530   65.7284    3.6338 N.ar    1  UNL1       -0.2743
     18 C          12.1991   65.2917    4.1776 C.ar    1  UNL1        0.2626
     19 C          10.9685   65.7791    3.6768 C.ar    1  UNL1        0.0795
     20 C          10.9774   66.6734    2.6651 C.ar    1  UNL1        0.0869
     21 O          14.3820   67.0007    2.1423 O.2     1  UNL1       -0.2464
     22 O          12.2159   64.4852    5.0890 O.2     1  UNL1       -0.2670
     23 H          14.2005   65.3998    3.9715 H       1  UNL1        0.1734
     24 O          17.4982   70.7647   -3.0705 O.3     1  UNL1       -0.2703
     25 P          18.4843   70.2204   -4.2196 P.3     1  UNL1        0.2208
     26 O          17.7083   69.9574   -5.4515 O.2     1  UNL1       -0.5170
     27 O          19.1841   68.8571   -3.7258 O.3     1  UNL1       -0.4371
     28 O          19.6164   71.3233   -4.5238 O.3     1  UNL1       -0.2865
     29 C          20.7953   70.6126   -4.9063 C.3     1  UNL1        0.2611
     30 C          22.0178   71.5039   -4.6805 C.3     1  UNL1        0.1582
     31 C          21.8648   72.7841   -5.5095 C.3     1  UNL1        0.1625
     32 C          21.6021   72.3950   -6.9681 C.3     1  UNL1        0.1686
     33 C          20.4088   71.4388   -7.0216 C.3     1  UNL1        0.1760
     34 O          23.0645   73.5556   -5.4248 O.3     1  UNL1       -0.3801
     35 O          21.3111   73.5679   -7.7306 O.3     1  UNL1       -0.3794
     36 O          20.7067   70.2543   -6.2837 O.3     1  UNL1       -0.3263
     37 H          22.9243   74.3495   -5.9590 H       1  UNL1        0.2105
     38 H          21.1517   73.2779   -8.6400 H       1  UNL1        0.2105
     39 C          23.2061   71.4865   -2.5540 C.2     1  UNL1        0.2231
     40 C          23.3082   71.8404   -1.0922 C.3     1  UNL1        0.0946
     41 N          22.1178   71.8479   -3.2606 N.am    1  UNL1       -0.2994
     42 O          24.1035   70.8757   -3.0940 O.2     1  UNL1       -0.2751
     43 H          21.3993   72.3365   -2.8286 H       1  UNL1        0.1496
     44 C          20.1176   71.0696   -8.4777 C.3     1  UNL1        0.1693
     45 O          18.8571   71.6196   -8.8661 O.3     1  UNL1       -0.3794
     46 H          18.7122   71.3641   -9.7871 H       1  UNL1        0.2105
@<TRIPOS>BOND
     1    29    30    1
     2    29    28    1
     3    29    36    1
     4    30    31    1
     5    30    41    1
     6    31    32    1
     7    31    34    1
     8    32    33    1
     9    32    35    1
    10    33    44    1
    11    33    36    1
    12    44    45    1
    13    39    40    1
    14    39    41   am
    15    39    42    2
    16    41    43    1
    17    28    25    1
    18    34    37    1
    19    35    38    1
    20    45    46    1
    21    15    16   ar
    22    15    20   ar
    23    15     6    1
    24    16    17   ar
    25    16    21    2
    26    17    18   ar
    27    17    23    1
    28    18    19   ar
    29    18    22    2
    30    19    20   ar
    31     6     7    1
    32     6    11    1
    33     7     8    1
    34     7     9    1
    35     8    13    1
    36     9    10    1
    37     9    12    1
    38    10    11    1
    39    10     5    1
    40    12    14    1
    41     5     4    1
    42     4     1    1
    43     1     2    2
    44     1     3    1
    45     1    24    1
    46    24    25    1
    47    25    26    2
    48    25    27    1
@<TRIPOS>MOLECULE
UD1
 46 48 0 0 0
SMALL
GASTEIGER

@<TRIPOS>ATOM
      1 P          20.7771   70.6820   -3.5780 P.3     1  UNL1        0.2189
      2 O          21.5532   71.3419   -4.6508 O.2     1  UNL1       -0.5170
      3 O          20.2091   69.2742   -4.1146 O.3     1  UNL1       -0.4371
      4 O          19.5465   71.6271   -3.1477 O.3     1  UNL1       -0.3112
      5 C          18.5272   70.7700   -2.6312 C.3     1  UNL1        0.1811
      6 C          16.9355   70.5029   -5.8440 C.3     1  UNL1        0.2383
      7 C          16.8680   69.0707   -5.2571 C.3     1  UNL1        0.1895
      8 O          15.7076   68.3813   -5.7236 O.3     1  UNL1       -0.3779
      9 C          16.7725   69.3471   -3.7341 C.3     1  UNL1        0.1713
     10 C          17.3258   70.7767   -3.5776 C.3     1  UNL1        0.1764
     11 O          17.7332   71.2248   -4.8817 O.3     1  UNL1       -0.3308
     12 O          15.4133   69.2792   -3.2975 O.3     1  UNL1       -0.3794
     13 H          15.7254   67.5007   -5.3240 H       1  UNL1        0.2106
     14 H          15.1072   68.3800   -3.4761 H       1  UNL1        0.2105
     15 N          17.5873   70.4971   -7.1542 N.ar    1  UNL1       -0.2551
     16 C          16.8387   70.4892   -8.2708 C.ar    1  UNL1        0.3323
     17 N          17.4113   70.4877   -9.4892 N.ar    1  UNL1       -0.2743
     18 C          18.7543   70.4848   -9.6088 C.ar    1  UNL1        0.2626
     19 C          19.5544   70.4871   -8.4414 C.ar    1  UNL1        0.0795
     20 C          18.9540   70.4939   -7.2320 C.ar    1  UNL1        0.0869
     21 O          15.6262   70.4918   -8.1793 O.2     1  UNL1       -0.2464
     22 O          19.2730   70.4787  -10.7098 O.2     1  UNL1       -0.2670
     23 H          16.8559   70.4868  -10.2840 H       1  UNL1        0.1734
     24 O          21.7287   70.4280   -2.3057 O.3     1  UNL1       -0.2703
     25 P          22.8210   71.6097   -2.2989 P.3     1  UNL1        0.2208
     26 O          22.3154   72.7532   -3.0898 O.2     1  UNL1       -0.5170
     27 O          24.1946   71.0755   -2.9470 O.3     1  UNL1       -0.4371
     28 O          23.0922   72.0828   -0.7846 O.3     1  UNL1       -0.2865
     29 C          22.4893   71.1081    0.0685 C.3     1  UNL1        0.2611
     30 C          21.4217   71.7833    0.9312 C.3     1  UNL1        0.1582
     31 C          22.0755   72.8959    1.7583 C.3     1  UNL1        0.1625
     32 C          23.2582   72.3019    2.5307 C.3     1  UNL1        0.1686
     33 C          24.1890   71.5901    1.5467 C.3     1  UNL1        0.1760
     34 O          21.1217   73.4339    2.6761 O.3     1  UNL1       -0.3801
     35 O          23.9707   73.3486    3.1928 O.3     1  UNL1       -0.3794
     36 O          23.4881   70.5264    0.9035 O.3     1  UNL1       -0.3263
     37 H          21.5742   74.1286    3.1741 H       1  UNL1        0.2105
     38 H          24.7055   72.9316    3.6649 H       1  UNL1        0.2105
     39 C          20.4361   73.6593   -0.2703 C.2     1  UNL1        0.2231
     40 C          19.3694   74.2493   -1.1571 C.3     1  UNL1        0.0946
     41 N          20.3860   72.3569    0.0694 N.am    1  UNL1       -0.2994
     42 O          21.3395   74.3574    0.1381 O.2     1  UNL1       -0.2751
     43 H          19.6630   71.7981   -0.2572 H       1  UNL1        0.1496
     44 C          25.3906   71.0210    2.3038 C.3     1  UNL1        0.1693
     45 O          25.0586   69.7330    2.8262 O.3     1  UNL1       -0.3794
     46 H          25.8404   69.4110    3.2948 H       1  UNL1        0.2105
@<TRIPOS>BOND
     1    29    30    1
     2    29    28    1
     3    29    36    1
     4    30    31    1
     5    30    41    1
     6    31    32    1
     7    31    34    1
     8    32    33    1
     9    32    35    1
    10    33    44    1
    11    33    36    1
    12    44    45    1
    13    39    40    1
    14    39    41   am
    15    39    42    2
    16    41    43    1
    17    28    25    1
    18    34    37    1
    19    35    38    1
    20    45    46    1
    21    15    16   ar
    22    15    20   ar
    23    15     6    1
    24    16    17   ar
    25    16    21    2
    26    17    18   ar
    27    17    23    1
    28    18    19   ar
    29    18    22    2
    30    19    20   ar
    31     6     7    1
    32     6    11    1
    33     7     8    1
    34     7     9    1
    35     8    13    1
    36     9    10    1
    37     9    12    1
    38    10    11    1
    39    10     5    1
    40    12    14    1
    41     5     4    1
    42     4     1    1
    43     1     2    2
    44     1     3    1
    45     1    24    1
    46    24    25    1
    47    25    26    2
    48    25    27    1
@<TRIPOS>MOLECULE
UD1
 46 48 0 0 0
SMALL
GASTEIGER

@<TRIPOS>ATOM
      1 P          15.8313   70.5024   -2.5807 P.3     1  UNL1        0.2189
      2 O          15.5871   71.6294   -3.5076 O.2     1  UNL1       -0.5170
      3 O          15.9104   69.1281   -3.4158 O.3     1  UNL1       -0.4371
      4 O          14.6267   70.4136   -1.5158 O.3     1  UNL1       -0.3112
      5 C          14.9091   69.3029   -0.6632 C.3     1  UNL1        0.1811
      6 C          12.6387   67.7098    1.6247 C.3     1  UNL1        0.2383
      7 C          12.2184   69.2009    1.6358 C.3     1  UNL1        0.1895
      8 O          10.8184   69.3355    1.8830 O.3     1  UNL1       -0.3779
      9 C          12.5713   69.6495    0.1938 C.3     1  UNL1        0.1713
     10 C          13.6019   68.6069   -0.2809 C.3     1  UNL1        0.1764
     11 O          13.8316   67.7014    0.8120 O.3     1  UNL1       -0.3308
     12 O          11.4080   69.6264   -0.6362 O.3     1  UNL1       -0.3794
     13 H          10.6227   70.2827    1.8777 H       1  UNL1        0.2106
     14 H          10.7798   70.2536   -0.2540 H       1  UNL1        0.2105
     15 N          12.9340   67.2433    2.9799 N.ar    1  UNL1       -0.2551
     16 C          12.9223   65.9261    3.2485 C.ar    1  UNL1        0.3323
     17 N          13.1940   65.4683    4.4849 N.ar    1  UNL1       -0.2743
     18 C          13.4751   66.3310    5.4823 C.ar    1  UNL1        0.2626
     19 C          13.4850   67.7207    5.2148 C.ar    1  UNL1        0.0795
     20 C          13.2141   68.1522    3.9644 C.ar    1  UNL1        0.0869
     21 O          12.6707   65.1355    2.3594 O.2     1  UNL1       -0.2464
     22 O          13.7162   65.9185    6.6017 O.2     1  UNL1       -0.2670
     23 H          13.1858   64.5146    4.6597 H       1  UNL1        0.1734
     24 O          17.2193   70.7390   -1.8020 O.3     1  UNL1       -0.2703
     25 P          18.3987   70.3562   -2.8275 P.3     1  UNL1        0.2208
     26 O          18.3360   68.9100   -3.1335 O.2     1  UNL1       -0.5170
     27 O          19.8232   70.7017   -2.1614 O.3     1  UNL1       -0.4371
     28 O          18.2248   71.2003   -4.1868 O.3     1  UNL1       -0.2865
     29 C          18.9732   70.5200   -5.1959 C.3     1  UNL1        0.2611
     30 C          19.9397   71.5039   -5.8574 C.3     1  UNL1        0.1582
     31 C          19.1389   72.6610   -6.4654 C.3     1  UNL1        0.1625
     32 C          18.0645   72.0803   -7.3909 C.3     1  UNL1        0.1686
     33 C          17.2374   71.0549   -6.6126 C.3     1  UNL1        0.1760
     34 O          20.0135   73.5076   -7.2135 O.3     1  UNL1       -0.3801
     35 O          17.2136   73.1309   -7.8534 O.3     1  UNL1       -0.3794
     36 O          18.0796   69.9902   -6.1726 O.3     1  UNL1       -0.3263
     37 H          19.4696   74.2199   -7.5769 H       1  UNL1        0.2105
     38 H          16.5530   72.7222   -8.4306 H       1  UNL1        0.2105
     39 C          22.1589   72.2463   -5.1804 C.2     1  UNL1        0.2231
     40 C          23.1170   72.7825   -4.1475 C.3     1  UNL1        0.0946
     41 N          20.8708   72.0253   -4.8546 N.am    1  UNL1       -0.2994
     42 O          22.5478   72.0130   -6.3049 O.2     1  UNL1       -0.2751
     43 H          20.5593   72.2118   -3.9547 H       1  UNL1        0.1496
     44 C          16.1404   70.4926   -7.5190 C.3     1  UNL1        0.1693
     45 O          16.5215   70.6562   -8.8865 O.3     1  UNL1       -0.3794
     46 H          15.8049   70.2902   -9.4224 H       1  UNL1        0.2105
@<TRIPOS>BOND
     1    29    30    1
     2    29    28    1
     3    29    36    1
     4    30    31    1
     5    30    41    1
     6    31    32    1
     7    31    34    1
     8    32    33    1
     9    32    35    1
    10    33    44    1
    11    33    36    1
    12    44    45    1
    13    39    40    1
    14    39    41   am
    15    39    42    2
    16    41    43    1
    17    28    25    1
    18    34    37    1
    19    35    38    1
    20    45    46    1
    21    15    16   ar
    22    15    20   ar
    23    15     6    1
    24    16    17   ar
    25    16    21    2
    26    17    18   ar
    27    17    23    1
    28    18    19   ar
    29    18    22    2
    30    19    20   ar
    31     6     7    1
    32     6    11    1
    33     7     8    1
    34     7     9    1
    35     8    13    1
    36     9    10    1
    37     9    12    1
    38    10    11    1
    39    10     5    1
    40    12    14    1
    41     5     4    1
    42     4     1    1
    43     1     2    2
    44     1     3    1
    45     1    24    1
    46    24    25    1
    47    25    26    2
    48    25    27    1
@<TRIPOS>MOLECULE
UD1
 46 48 0 0 0
SMALL
GASTEIGER

@<TRIPOS>ATOM
      1 P          21.1871   71.0902   -2.3822 P.3     1  UNL1        0.2189
      2 O          21.0788   72.5538   -2.5688 O.2     1  UNL1       -0.5170
      3 O          22.6117   70.5827   -2.9347 O.3     1  UNL1       -0.4371
      4 O          20.0056   70.3573   -3.1944 O.3     1  UNL1       -0.3112
      5 C          18.8327   70.4399   -2.3834 C.3     1  UNL1        0.1811
      6 C          17.1130   70.4825   -5.5406 C.3     1  UNL1        0.2383
      7 C          16.9719   69.0227   -5.0414 C.3     1  UNL1        0.1895
      8 O          15.7525   68.4403   -5.5031 O.3     1  UNL1       -0.3779
      9 C          16.9494   69.2059   -3.5016 C.3     1  UNL1        0.1713
     10 C          17.6013   70.5843   -3.2790 C.3     1  UNL1        0.1764
     11 O          17.9906   71.0886   -4.5679 O.3     1  UNL1       -0.3308
     12 O          15.6051   69.1969   -3.0162 O.3     1  UNL1       -0.3794
     13 H          15.7262   67.5364   -5.1599 H       1  UNL1        0.2106
     14 H          15.2340   68.3325   -3.2379 H       1  UNL1        0.2105
     15 N          17.7158   70.5196   -6.8735 N.ar    1  UNL1       -0.2551
     16 C          16.9308   70.4431   -7.9622 C.ar    1  UNL1        0.3323
     17 N          17.4576   70.4788   -9.2005 N.ar    1  UNL1       -0.2743
     18 C          18.7913   70.5833   -9.3688 C.ar    1  UNL1        0.2626
     19 C          19.6299   70.6586   -8.2313 C.ar    1  UNL1        0.0795
     20 C          19.0746   70.6260   -7.0009 C.ar    1  UNL1        0.0869
     21 O          15.7261   70.3487   -7.8267 O.2     1  UNL1       -0.2464
     22 O          19.2690   70.6108  -10.4879 O.2     1  UNL1       -0.2670
     23 H          16.8760   70.4273   -9.9747 H       1  UNL1        0.1734
     24 O          21.0609   70.7379   -0.8173 O.3     1  UNL1       -0.2703
     25 P          22.3346   71.3975   -0.0881 P.3     1  UNL1        0.2208
     26 O          23.3634   71.7303   -1.0979 O.2     1  UNL1       -0.5170
     27 O          22.9452   70.3540    0.9751 O.3     1  UNL1       -0.4371
     28 O          21.8812   72.7384    0.6779 O.3     1  UNL1       -0.2865
     29 C          20.7474   72.3961    1.4769 C.3     1  UNL1        0.2611
     30 C          19.8367   73.6178    1.6112 C.3     1  UNL1        0.1582
     31 C          20.6263   74.7632    2.2549 C.3     1  UNL1        0.1625
     32 C          21.2394   74.2597    3.5659 C.3     1  UNL1        0.1686
     33 C          22.0469   72.9911    3.2835 C.3     1  UNL1        0.1760
     34 O          19.7488   75.8586    2.5223 O.3     1  UNL1       -0.3801
     35 O          22.0988   75.2641    4.1083 O.3     1  UNL1       -0.3794
     36 O          21.1862   71.9766    2.7672 O.3     1  UNL1       -0.3263
     37 H          20.2858   76.5547    2.9254 H       1  UNL1        0.2105
     38 H          22.4633   74.9063    4.9303 H       1  UNL1        0.2105
     39 C          20.0037   75.0141   -0.3780 C.2     1  UNL1        0.2231
     40 C          19.5218   75.4369   -1.7423 C.3     1  UNL1        0.0946
     41 N          19.3693   74.0285    0.2856 N.am    1  UNL1       -0.2994
     42 O          20.9624   75.5619    0.1230 O.2     1  UNL1       -0.2751
     43 H          18.6019   73.5901   -0.1150 H       1  UNL1        0.1496
     44 C          22.6903   72.4982    4.5813 C.3     1  UNL1        0.1693
     45 O          21.8913   72.9049    5.6940 O.3     1  UNL1       -0.3794
     46 H          22.3309   72.5754    6.4895 H       1  UNL1        0.2105
@<TRIPOS>BOND
     1    29    30    1
     2    29    28    1
     3    29    36    1
     4    30    31    1
     5    30    41    1
     6    31    32    1
     7    31    34    1
     8    32    33    1
     9    32    35    1
    10    33    44    1
    11    33    36    1
    12    44    45    1
    13    39    40    1
    14    39    41   am
    15    39    42    2
    16    41    43    1
    17    28    25    1
    18    34    37    1
    19    35    38    1
    20    45    46    1
    21    15    16   ar
    22    15    20   ar
    23    15     6    1
    24    16    17   ar
    25    16    21    2
    26    17    18   ar
    27    17    23    1
    28    18    19   ar
    29    18    22    2
    30    19    20   ar
    31     6     7    1
    32     6    11    1
    33     7     8    1
    34     7     9    1
    35     8    13    1
    36     9    10    1
    37     9    12    1
    38    10    11    1
    39    10     5    1
    40    12    14    1
    41     5     4    1
    42     4     1    1
    43     1     2    2
    44     1     3    1
    45     1    24    1
    46    24    25    1
    47    25    26    2
    48    25    27    1
@<TRIPOS>MOLECULE
UD1
 46 48 0 0 0
SMALL
GASTEIGER

@<TRIPOS>ATOM
      1 P          20.7359   71.4146   -1.1768 P.3     1  UNL1        0.2189
      2 O          20.6641   70.6061    0.0601 O.2     1  UNL1       -0.5170
      3 O          21.3222   72.8738   -0.8309 O.3     1  UNL1       -0.4371
      4 O          19.2610   71.5651   -1.8052 O.3     1  UNL1       -0.3112
      5 C          18.9649   70.3336   -2.4657 C.3     1  UNL1        0.1811
      6 C          17.1870   70.4327   -5.5892 C.3     1  UNL1        0.2383
      7 C          17.0287   68.9717   -5.0986 C.3     1  UNL1        0.1895
      8 O          15.7904   68.4151   -5.5415 O.3     1  UNL1       -0.3779
      9 C          17.0386   69.1429   -3.5573 C.3     1  UNL1        0.1713
     10 C          17.7197   70.5074   -3.3365 C.3     1  UNL1        0.1764
     11 O          18.0937   71.0149   -4.6287 O.3     1  UNL1       -0.3308
     12 O          15.7038   69.1543   -3.0465 O.3     1  UNL1       -0.3794
     13 H          15.7541   67.5092   -5.2048 H       1  UNL1        0.2106
     14 H          15.3128   68.2985   -3.2677 H       1  UNL1        0.2105
     15 N          17.7651   70.4696   -6.9330 N.ar    1  UNL1       -0.2551
     16 C          16.9573   70.4346   -8.0071 C.ar    1  UNL1        0.3323
     17 N          17.4612   70.4712   -9.2549 N.ar    1  UNL1       -0.2743
     18 C          18.7941   70.5346   -9.4478 C.ar    1  UNL1        0.2626
     19 C          19.6563   70.5659   -8.3260 C.ar    1  UNL1        0.0795
     20 C          19.1240   70.5335   -7.0855 C.ar    1  UNL1        0.0869
     21 O          15.7529   70.3775   -7.8493 O.2     1  UNL1       -0.2464
     22 O          19.2510   70.5628  -10.5755 O.2     1  UNL1       -0.2670
     23 H          16.8635   70.4499  -10.0181 H       1  UNL1        0.1734
     24 O          21.6999   70.6859   -2.2392 O.3     1  UNL1       -0.2703
     25 P          23.0362   71.5764   -2.3415 P.3     1  UNL1        0.2208
     26 O          24.0906   70.8054   -3.0363 O.2     1  UNL1       -0.5170
     27 O          23.5405   71.9608   -0.8616 O.3     1  UNL1       -0.4371
     28 O          22.7238   72.9224   -3.1669 O.3     1  UNL1       -0.2865
     29 C          23.8646   73.1796   -3.9876 C.3     1  UNL1        0.2611
     30 C          24.3189   74.6257   -3.7822 C.3     1  UNL1        0.1582
     31 C          23.1670   75.5694   -4.1457 C.3     1  UNL1        0.1625
     32 C          22.6850   75.2321   -5.5607 C.3     1  UNL1        0.1686
     33 C          22.3511   73.7405   -5.6311 C.3     1  UNL1        0.1760
     34 O          23.6242   76.9223   -4.1019 O.3     1  UNL1       -0.3801
     35 O          21.5184   75.9993   -5.8638 O.3     1  UNL1       -0.3794
     36 O          23.5209   72.9710   -5.3557 O.3     1  UNL1       -0.3263
     37 H          22.8697   77.4800   -4.3362 H       1  UNL1        0.2105
     38 H          21.2488   75.7559   -6.7608 H       1  UNL1        0.2105
     39 C          23.8086   75.3550   -1.5146 C.2     1  UNL1        0.2231
     40 C          24.1958   75.5625   -0.0725 C.3     1  UNL1        0.0946
     41 N          24.6943   74.8270   -2.3811 N.am    1  UNL1       -0.2994
     42 O          22.6997   75.6642   -1.8951 O.2     1  UNL1       -0.2751
     43 H          25.5820   74.5797   -2.0769 H       1  UNL1        0.1496
     44 C          21.8377   73.3996   -7.0316 C.3     1  UNL1        0.1693
     45 O          20.4861   73.8439   -7.1651 O.3     1  UNL1       -0.3794
     46 H          20.2018   73.6101   -8.0591 H       1  UNL1        0.2105
@<TRIPOS>BOND
     1    29    30    1
     2    29    28    1
     3    29    36    1
     4    30    31    1
     5    30    41    1
     6    31    32    1
     7    31    34    1
     8    32    33    1
     9    32    35    1
    10    33    44    1
    11    33    36    1
    12    44    45    1
    13    39    40    1
    14    39    41   am
    15    39    42    2
    16    41    43    1
    17    28    25    1
    18    34    37    1
    19    35    38    1
    20    45    46    1
    21    15    16   ar
    22    15    20   ar
    23    15     6    1
    24    16    17   ar
    25    16    21    2
    26    17    18   ar
    27    17    23    1
    28    18    19   ar
    29    18    22    2
    30    19    20   ar
    31     6     7    1
    32     6    11    1
    33     7     8    1
    34     7     9    1
    35     8    13    1
    36     9    10    1
    37     9    12    1
    38    10    11    1
    39    10     5    1
    40    12    14    1
    41     5     4    1
    42     4     1    1
    43     1     2    2
    44     1     3    1
    45     1    24    1
    46    24    25    1
    47    25    26    2
    48    25    27    1
@<TRIPOS>MOLECULE
UD1
 46 48 0 0 0
SMALL
GASTEIGER

@<TRIPOS>ATOM
      1 P          22.9481   71.7522   -2.7223 P.3     1  UNL1        0.2189
      2 O          23.3267   73.1437   -3.0526 O.2     1  UNL1       -0.5170
      3 O          24.1632   70.7630   -3.0931 O.3     1  UNL1       -0.4371
      4 O          21.6422   71.3369   -3.5678 O.3     1  UNL1       -0.3112
      5 C          20.7277   70.7370   -2.6489 C.3     1  UNL1        0.1811
      6 C          18.1668   70.6973   -5.1722 C.3     1  UNL1        0.2383
      7 C          18.1017   69.2886   -4.5309 C.3     1  UNL1        0.1895
      8 O          16.7722   68.7691   -4.5723 O.3     1  UNL1       -0.3779
      9 C          18.5388   69.5750   -3.0708 C.3     1  UNL1        0.1713
     10 C          19.2980   70.9127   -3.1628 C.3     1  UNL1        0.1764
     11 O          19.3201   71.2998   -4.5473 O.3     1  UNL1       -0.3308
     12 O          17.3959   69.6983   -2.2214 O.3     1  UNL1       -0.3794
     13 H          16.8002   67.8945   -4.1602 H       1  UNL1        0.2106
     14 H          16.9318   68.8511   -2.2529 H       1  UNL1        0.2105
     15 N          18.3558   70.6007   -6.6201 N.ar    1  UNL1       -0.2551
     16 C          17.2840   70.5487   -7.4300 C.ar    1  UNL1        0.3323
     17 N          17.4280   70.4636   -8.7657 N.ar    1  UNL1       -0.2743
     18 C          18.6585   70.4196   -9.3151 C.ar    1  UNL1        0.2626
     19 C          19.7955   70.4675   -8.4737 C.ar    1  UNL1        0.0795
     20 C          19.6223   70.5582   -7.1376 C.ar    1  UNL1        0.0869
     21 O          16.1676   70.5874   -6.9496 O.2     1  UNL1       -0.2464
     22 O          18.7899   70.3378  -10.5223 O.2     1  UNL1       -0.2670
     23 H          16.6438   70.4318   -9.3352 H       1  UNL1        0.1734
     24 O          22.6263   71.6424   -1.1496 O.3     1  UNL1       -0.2703
     25 P          22.5919   73.1455   -0.5761 P.3     1  UNL1        0.2208
     26 O          21.7965   74.0015   -1.4835 O.2     1  UNL1       -0.5170
     27 O          24.0936   73.7179   -0.4787 O.3     1  UNL1       -0.4371
     28 O          21.9224   73.1476    0.8875 O.3     1  UNL1       -0.2865
     29 C          22.6247   74.1204    1.6632 C.3     1  UNL1        0.2611
     30 C          23.1076   73.4763    2.9640 C.3     1  UNL1        0.1582
     31 C          21.8976   72.9391    3.7366 C.3     1  UNL1        0.1625
     32 C          20.8826   74.0742    3.9086 C.3     1  UNL1        0.1686
     33 C          20.5653   74.6712    2.5359 C.3     1  UNL1        0.1760
     34 O          22.3181   72.4699    5.0189 O.3     1  UNL1       -0.3801
     35 O          19.6858   73.5602    4.4960 O.3     1  UNL1       -0.3794
     36 O          21.7537   75.2101    1.9582 O.3     1  UNL1       -0.3263
     37 H          21.5277   72.1416    5.4693 H       1  UNL1        0.2105
     38 H          19.0755   74.3059    4.5854 H       1  UNL1        0.2105
     39 C          25.3529   72.5595    2.7355 C.2     1  UNL1        0.2231
     40 C          26.2930   71.4249    2.4172 C.3     1  UNL1        0.0946
     41 N          24.0212   72.3743    2.6553 N.am    1  UNL1       -0.2994
     42 O          25.7955   73.6396    3.0634 O.2     1  UNL1       -0.2751
     43 H          23.6668   71.5100    2.3927 H       1  UNL1        0.1496
     44 C          19.5276   75.7846    2.6930 C.3     1  UNL1        0.1693
     45 O          20.1828   77.0543    2.6653 O.3     1  UNL1       -0.3794
     46 H          19.4952   77.7263    2.7673 H       1  UNL1        0.2105
@<TRIPOS>BOND
     1    29    30    1
     2    29    28    1
     3    29    36    1
     4    30    31    1
     5    30    41    1
     6    31    32    1
     7    31    34    1
     8    32    33    1
     9    32    35    1
    10    33    44    1
    11    33    36    1
    12    44    45    1
    13    39    40    1
    14    39    41   am
    15    39    42    2
    16    41    43    1
    17    28    25    1
    18    34    37    1
    19    35    38    1
    20    45    46    1
    21    15    16   ar
    22    15    20   ar
    23    15     6    1
    24    16    17   ar
    25    16    21    2
    26    17    18   ar
    27    17    23    1
    28    18    19   ar
    29    18    22    2
    30    19    20   ar
    31     6     7    1
    32     6    11    1
    33     7     8    1
    34     7     9    1
    35     8    13    1
    36     9    10    1
    37     9    12    1
    38    10    11    1
    39    10     5    1
    40    12    14    1
    41     5     4    1
    42     4     1    1
    43     1     2    2
    44     1     3    1
    45     1    24    1
    46    24    25    1
    47    25    26    2
    48    25    27    1
@<TRIPOS>MOLECULE
UD1
 46 48 0 0 0
SMALL
GASTEIGER

@<TRIPOS>ATOM
      1 P          21.7432   72.2861   -6.2368 P.3     1  UNL1        0.2189
      2 O          20.7521   73.3253   -6.5925 O.2     1  UNL1       -0.5170
      3 O          23.2150   72.7790   -6.6652 O.3     1  UNL1       -0.4371
      4 O          21.3891   70.9199   -7.0120 O.3     1  UNL1       -0.3112
      5 C          20.5554   71.2747   -8.1162 C.3     1  UNL1        0.1811
      6 C          17.3849   70.0801   -6.9128 C.3     1  UNL1        0.2383
      7 C          17.0198   71.1346   -7.9875 C.3     1  UNL1        0.1895
      8 O          15.7872   70.8053   -8.6288 O.3     1  UNL1       -0.3779
      9 C          18.2078   71.0155   -8.9773 C.3     1  UNL1        0.1713
     10 C          19.3270   70.3639   -8.1423 C.3     1  UNL1        0.1764
     11 O          18.8205   70.1877   -6.8082 O.3     1  UNL1       -0.3308
     12 O          17.8540   70.1856  -10.0859 O.3     1  UNL1       -0.3794
     13 H          15.6178   71.4976   -9.2826 H       1  UNL1        0.2106
     14 H          17.1122   70.6161  -10.5314 H       1  UNL1        0.2105
     15 N          16.7488   70.3998   -5.6342 N.ar    1  UNL1       -0.2551
     16 C          16.3673   69.4061   -4.8130 C.ar    1  UNL1        0.3323
     17 N          15.7835   69.6709   -3.6292 N.ar    1  UNL1       -0.2743
     18 C          15.5626   70.9460   -3.2506 C.ar    1  UNL1        0.2626
     19 C          15.9539   72.0016   -4.1082 C.ar    1  UNL1        0.0795
     20 C          16.5423   71.7078   -5.2875 C.ar    1  UNL1        0.0869
     21 O          16.5597   68.2510   -5.1404 O.2     1  UNL1       -0.2464
     22 O          15.0305   71.1864   -2.1827 O.2     1  UNL1       -0.2670
     23 H          15.5190   68.9419   -3.0472 H       1  UNL1        0.1734
     24 O          21.7037   72.0278   -4.6492 O.3     1  UNL1       -0.2703
     25 P          22.6791   73.1167   -3.9766 P.3     1  UNL1        0.2208
     26 O          22.5145   74.4169   -4.6631 O.2     1  UNL1       -0.5170
     27 O          24.2068   72.6275   -4.1144 O.3     1  UNL1       -0.4371
     28 O          22.3084   73.2817   -2.4191 O.3     1  UNL1       -0.2865
     29 C          23.1711   72.4047   -1.6926 C.3     1  UNL1        0.2611
     30 C          22.3301   71.5123   -0.7780 C.3     1  UNL1        0.1582
     31 C          21.5241   72.3956    0.1811 C.3     1  UNL1        0.1625
     32 C          22.4886   73.3433    0.9021 C.3     1  UNL1        0.1686
     33 C          23.3156   74.0999   -0.1396 C.3     1  UNL1        0.1760
     34 O          20.8507   71.5744    1.1368 O.3     1  UNL1       -0.3801
     35 O          21.7442   74.2736    1.6908 O.3     1  UNL1       -0.3794
     36 O          24.0814   73.1755   -0.9112 O.3     1  UNL1       -0.3263
     37 H          20.3573   72.1694    1.7181 H       1  UNL1        0.2105
     38 H          22.3885   74.8501    2.1256 H       1  UNL1        0.2105
     39 C          20.1433   71.1087   -1.7727 C.2     1  UNL1        0.2231
     40 C          19.2016   70.2772   -2.6058 C.3     1  UNL1        0.0946
     41 N          21.4150   70.7052   -1.5876 N.am    1  UNL1       -0.2994
     42 O          19.7560   72.1410   -1.2683 O.2     1  UNL1       -0.2751
     43 H          21.7251   69.8789   -1.9910 H       1  UNL1        0.1496
     44 C          24.2597   75.0731    0.5695 C.3     1  UNL1        0.1693
     45 O          24.9926   75.8204   -0.4033 O.3     1  UNL1       -0.3794
     46 H          25.5740   76.4197    0.0840 H       1  UNL1        0.2105
@<TRIPOS>BOND
     1    29    30    1
     2    29    28    1
     3    29    36    1
     4    30    31    1
     5    30    41    1
     6    31    32    1
     7    31    34    1
     8    32    33    1
     9    32    35    1
    10    33    44    1
    11    33    36    1
    12    44    45    1
    13    39    40    1
    14    39    41   am
    15    39    42    2
    16    41    43    1
    17    28    25    1
    18    34    37    1
    19    35    38    1
    20    45    46    1
    21    15    16   ar
    22    15    20   ar
    23    15     6    1
    24    16    17   ar
    25    16    21    2
    26    17    18   ar
    27    17    23    1
    28    18    19   ar
    29    18    22    2
    30    19    20   ar
    31     6     7    1
    32     6    11    1
    33     7     8    1
    34     7     9    1
    35     8    13    1
    36     9    10    1
    37     9    12    1
    38    10    11    1
    39    10     5    1
    40    12    14    1
    41     5     4    1
    42     4     1    1
    43     1     2    2
    44     1     3    1
    45     1    24    1
    46    24    25    1
    47    25    26    2
    48    25    27    1
@<TRIPOS>MOLECULE
UD1
 46 48 0 0 0
SMALL
GASTEIGER

@<TRIPOS>ATOM
      1 P          20.9633   71.9273   -2.1089 P.3     1  UNL1        0.2189
      2 O          19.9784   72.6461   -1.2710 O.2     1  UNL1       -0.5170
      3 O          21.9799   72.9864   -2.7702 O.3     1  UNL1       -0.4371
      4 O          20.1927   71.1255   -3.2734 O.3     1  UNL1       -0.3112
      5 C          19.0951   70.4517   -2.6555 C.3     1  UNL1        0.1811
      6 C          17.2801   70.4871   -5.7589 C.3     1  UNL1        0.2383
      7 C          17.1039   69.0443   -5.2226 C.3     1  UNL1        0.1895
      8 O          15.8511   68.4957   -5.6336 O.3     1  UNL1       -0.3779
      9 C          17.1360   69.2614   -3.6873 C.3     1  UNL1        0.1713
     10 C          17.8421   70.6203   -3.5161 C.3     1  UNL1        0.1764
     11 O          18.2082   71.0825   -4.8274 O.3     1  UNL1       -0.3308
     12 O          15.8080   69.3106   -3.1611 O.3     1  UNL1       -0.3794
     13 H          15.8041   67.6009   -5.2693 H       1  UNL1        0.2106
     14 H          15.4003   68.4553   -3.3517 H       1  UNL1        0.2105
     15 N          17.8418   70.4739   -7.1101 N.ar    1  UNL1       -0.2551
     16 C          17.0194   70.4663   -8.1736 C.ar    1  UNL1        0.3323
     17 N          17.5083   70.4581   -9.4278 N.ar    1  UNL1       -0.2743
     18 C          18.8401   70.4481   -9.6379 C.ar    1  UNL1        0.2626
     19 C          19.7173   70.4500   -8.5273 C.ar    1  UNL1        0.0795
     20 C          19.2001   70.4637   -7.2801 C.ar    1  UNL1        0.0869
     21 O          15.8159   70.4752   -8.0003 O.2     1  UNL1       -0.2464
     22 O          19.2832   70.4359  -10.7715 O.2     1  UNL1       -0.2670
     23 H          16.9004   70.4575  -10.1833 H       1  UNL1        0.1734
     24 O          21.7871   70.8886   -1.1971 O.3     1  UNL1       -0.2703
     25 P          21.6448   71.3915    0.3248 P.3     1  UNL1        0.2208
     26 O          21.5826   70.2208    1.2272 O.2     1  UNL1       -0.5170
     27 O          20.2979   72.2599    0.4800 O.3     1  UNL1       -0.4371
     28 O          22.9153   72.3005    0.7120 O.3     1  UNL1       -0.2865
     29 C          22.4439   73.6443    0.8267 C.3     1  UNL1        0.2611
     30 C          23.5752   74.6088    0.4663 C.3     1  UNL1        0.1582
     31 C          24.7589   74.3681    1.4100 C.3     1  UNL1        0.1625
     32 C          24.2595   74.4600    2.8558 C.3     1  UNL1        0.1686
     33 C          23.0783   73.5043    3.0368 C.3     1  UNL1        0.1760
     34 O          25.7620   75.3598    1.1825 O.3     1  UNL1       -0.3801
     35 O          25.3129   74.0948    3.7494 O.3     1  UNL1       -0.3794
     36 O          22.0138   73.8830    2.1651 O.3     1  UNL1       -0.3263
     37 H          26.4859   75.1706    1.7953 H       1  UNL1        0.2105
     38 H          24.9561   74.1655    4.6462 H       1  UNL1        0.2105
     39 C          24.3244   75.4166   -1.7064 C.2     1  UNL1        0.2231
     40 C          24.7565   75.1763   -3.1305 C.3     1  UNL1        0.0946
     41 N          23.9955   74.3759   -0.9170 N.am    1  UNL1       -0.2994
     42 O          24.2720   76.5471   -1.2713 O.2     1  UNL1       -0.2751
     43 H          24.0371   73.4711   -1.2651 H       1  UNL1        0.1496
     44 C          22.5926   73.5645    4.4865 C.3     1  UNL1        0.1693
     45 O          22.4020   72.2374    4.9809 O.3     1  UNL1       -0.3794
     46 H          22.0965   72.3203    5.8944 H       1  UNL1        0.2105
@<TRIPOS>BOND
     1    29    30    1
     2    29    28    1
     3    29    36    1
     4    30    31    1
     5    30    41    1
     6    31    32    1
     7    31    34    1
     8    32    33    1
     9    32    35    1
    10    33    44    1
    11    33    36    1
    12    44    45    1
    13    39    40    1
    14    39    41   am
    15    39    42    2
    16    41    43    1
    17    28    25    1
    18    34    37    1
    19    35    38    1
    20    45    46    1
    21    15    16   ar
    22    15    20   ar
    23    15     6    1
    24    16    17   ar
    25    16    21    2
    26    17    18   ar
    27    17    23    1
    28    18    19   ar
    29    18    22    2
    30    19    20   ar
    31     6     7    1
    32     6    11    1
    33     7     8    1
    34     7     9    1
    35     8    13    1
    36     9    10    1
    37     9    12    1
    38    10    11    1
    39    10     5    1
    40    12    14    1
    41     5     4    1
    42     4     1    1
    43     1     2    2
    44     1     3    1
    45     1    24    1
    46    24    25    1
    47    25    26    2
    48    25    27    1
@<TRIPOS>MOLECULE
UD1
 46 48 0 0 0
SMALL
GASTEIGER

@<TRIPOS>ATOM
      1 P          22.2836   71.2966    0.1318 P.3     1  UNL1        0.2189
      2 O          23.2384   70.4942    0.9275 O.2     1  UNL1       -0.5170
      3 O          20.7996   70.6981    0.3110 O.3     1  UNL1       -0.4371
      4 O          22.7001   71.2393   -1.4226 O.3     1  UNL1       -0.3112
      5 C          21.4976   71.0357   -2.1661 C.3     1  UNL1        0.1811
      6 C          20.7017   70.7906   -5.6638 C.3     1  UNL1        0.2383
      7 C          21.0383   72.2871   -5.4462 C.3     1  UNL1        0.1895
      8 O          21.6060   72.8599   -6.6247 O.3     1  UNL1       -0.3779
      9 C          22.0843   72.2227   -4.3031 C.3     1  UNL1        0.1713
     10 C          21.8369   70.8511   -3.6460 C.3     1  UNL1        0.1764
     11 O          20.7286   70.2410   -4.3293 O.3     1  UNL1       -0.3308
     12 O          23.4096   72.2992   -4.8327 O.3     1  UNL1       -0.3794
     13 H          21.7913   73.7877   -6.4240 H       1  UNL1        0.2106
     14 H          23.4824   73.1522   -5.2811 H       1  UNL1        0.2105
     15 N          19.3731   70.6381   -6.2580 N.ar    1  UNL1       -0.2551
     16 C          19.2494   70.5174   -7.5912 C.ar    1  UNL1        0.3323
     17 N          18.0402   70.3719   -8.1648 N.ar    1  UNL1       -0.2743
     18 C          16.9259   70.3541   -7.4059 C.ar    1  UNL1        0.2626
     19 C          17.0412   70.4862   -6.0016 C.ar    1  UNL1        0.0795
     20 C          18.2668   70.6254   -5.4520 C.ar    1  UNL1        0.0869
     21 O          20.2451   70.5315   -8.2891 O.2     1  UNL1       -0.2464
     22 O          15.8318   70.2274   -7.9238 O.2     1  UNL1       -0.2670
     23 H          17.9700   70.2814   -9.1276 H       1  UNL1        0.1734
     24 O          22.3124   72.8233    0.6389 O.3     1  UNL1       -0.2703
     25 P          21.4680   72.8745    2.0077 P.3     1  UNL1        0.2208
     26 O          21.2978   71.5023    2.5338 O.2     1  UNL1       -0.5170
     27 O          20.0219   73.5225    1.7230 O.3     1  UNL1       -0.4371
     28 O          22.2523   73.7708    3.0903 O.3     1  UNL1       -0.2865
     29 C          22.9995   72.8706    3.9104 C.3     1  UNL1        0.2611
     30 C          22.9533   73.3527    5.3614 C.3     1  UNL1        0.1582
     31 C          23.5384   74.7674    5.4385 C.3     1  UNL1        0.1625
     32 C          24.9308   74.7574    4.7988 C.3     1  UNL1        0.1686
     33 C          24.8272   74.1721    3.3888 C.3     1  UNL1        0.1760
     34 O          23.6388   75.1702    6.8056 O.3     1  UNL1       -0.3801
     35 O          25.4336   76.0930    4.7276 O.3     1  UNL1       -0.3794
     36 O          24.3512   72.8286    3.4583 O.3     1  UNL1       -0.3263
     37 H          24.0101   76.0632    6.8072 H       1  UNL1        0.2105
     38 H          26.3092   76.0408    4.3189 H       1  UNL1        0.2105
     39 C          20.8348   74.4971    5.7307 C.2     1  UNL1        0.2231
     40 C          19.4062   74.5143    6.2116 C.3     1  UNL1        0.0946
     41 N          21.5654   73.3698    5.8281 N.am    1  UNL1       -0.2994
     42 O          21.3269   75.4986    5.2564 O.2     1  UNL1       -0.2751
     43 H          21.1719   72.5682    6.2078 H       1  UNL1        0.1496
     44 C          26.2075   74.1877    2.7288 C.3     1  UNL1        0.1693
     45 O          26.8609   72.9381    2.9605 O.3     1  UNL1       -0.3794
     46 H          27.7248   72.9899    2.5296 H       1  UNL1        0.2105
@<TRIPOS>BOND
     1    29    30    1
     2    29    28    1
     3    29    36    1
     4    30    31    1
     5    30    41    1
     6    31    32    1
     7    31    34    1
     8    32    33    1
     9    32    35    1
    10    33    44    1
    11    33    36    1
    12    44    45    1
    13    39    40    1
    14    39    41   am
    15    39    42    2
    16    41    43    1
    17    28    25    1
    18    34    37    1
    19    35    38    1
    20    45    46    1
    21    15    16   ar
    22    15    20   ar
    23    15     6    1
    24    16    17   ar
    25    16    21    2
    26    17    18   ar
    27    17    23    1
    28    18    19   ar
    29    18    22    2
    30    19    20   ar
    31     6     7    1
    32     6    11    1
    33     7     8    1
    34     7     9    1
    35     8    13    1
    36     9    10    1
    37     9    12    1
    38    10    11    1
    39    10     5    1
    40    12    14    1
    41     5     4    1
    42     4     1    1
    43     1     2    2
    44     1     3    1
    45     1    24    1
    46    24    25    1
    47    25    26    2
    48    25    27    1
@<TRIPOS>MOLECULE
UD1
 46 48 0 0 0
SMALL
GASTEIGER

@<TRIPOS>ATOM
      1 P          21.1649   71.3222   -0.0497 P.3     1  UNL1        0.2189
      2 O          20.2985   72.3679    0.5373 O.2     1  UNL1       -0.5170
      3 O          21.4279   70.1681    1.0419 O.3     1  UNL1       -0.4371
      4 O          22.5701   71.9744   -0.4887 O.3     1  UNL1       -0.3112
      5 C          23.3550   72.1039    0.6976 C.3     1  UNL1        0.1811
      6 C          23.4212   74.7488    3.1323 C.3     1  UNL1        0.2383
      7 C          24.9109   74.5042    2.7841 C.3     1  UNL1        0.1895
      8 O          25.6684   75.7088    2.9048 O.3     1  UNL1       -0.3779
      9 C          24.8288   74.0481    1.3041 C.3     1  UNL1        0.1713
     10 C          23.3738   73.5676    1.1406 C.3     1  UNL1        0.1764
     11 O          22.7315   73.6995    2.4202 O.3     1  UNL1       -0.3308
     12 O          25.1025   75.1430    0.4272 O.3     1  UNL1       -0.3794
     13 H          26.5822   75.4892    2.6761 H       1  UNL1        0.2106
     14 H          26.0033   75.4359    0.6189 H       1  UNL1        0.2105
     15 N          23.1980   74.6275    4.5734 N.ar    1  UNL1       -0.2551
     16 C          22.8461   73.4397    5.0956 C.ar    1  UNL1        0.3323
     17 N          22.6382   73.2981    6.4181 N.ar    1  UNL1       -0.2743
     18 C          22.7717   74.3556    7.2439 C.ar    1  UNL1        0.2626
     19 C          23.1358   75.6132    6.7067 C.ar    1  UNL1        0.0795
     20 C          23.3435   75.7259    5.3773 C.ar    1  UNL1        0.0869
     21 O          22.7219   72.4767    4.3636 O.2     1  UNL1       -0.2464
     22 O          22.5792   74.2298    8.4391 O.2     1  UNL1       -0.2670
     23 H          22.3896   72.4329    6.7781 H       1  UNL1        0.1734
     24 O          20.4417   70.6876   -1.3394 O.3     1  UNL1       -0.2703
     25 P          20.7622   71.6626   -2.5787 P.3     1  UNL1        0.2208
     26 O          21.9338   71.1477   -3.3211 O.2     1  UNL1       -0.5170
     27 O          21.0834   73.1417   -2.0298 O.3     1  UNL1       -0.4371
     28 O          19.4882   71.7211   -3.5606 O.3     1  UNL1       -0.2865
     29 C          19.6640   70.6862   -4.5297 C.3     1  UNL1        0.2611
     30 C          19.5793   71.2889   -5.9332 C.3     1  UNL1        0.1582
     31 C          18.2151   71.9662   -6.1062 C.3     1  UNL1        0.1625
     32 C          17.1178   70.9528   -5.7645 C.3     1  UNL1        0.1686
     33 C          17.3866   70.3776   -4.3722 C.3     1  UNL1        0.1760
     34 O          18.0649   72.4018   -7.4587 O.3     1  UNL1       -0.3801
     35 O          15.8457   71.6033   -5.7768 O.3     1  UNL1       -0.3794
     36 O          18.6443   69.7033   -4.3638 O.3     1  UNL1       -0.3263
     37 H          17.1958   72.8211   -7.5223 H       1  UNL1        0.2105
     38 H          15.1855   70.9310   -5.5564 H       1  UNL1        0.2105
     39 C          21.2872   72.3789   -7.2856 C.2     1  UNL1        0.2231
     40 C          22.3836   73.3980   -7.4631 C.3     1  UNL1        0.0946
     41 N          20.6441   72.2790   -6.1063 N.am    1  UNL1       -0.2994
     42 O          20.9841   71.6482   -8.2044 O.2     1  UNL1       -0.2751
     43 H          20.8867   72.8636   -5.3707 H       1  UNL1        0.1496
     44 C          16.2781   69.3880   -4.0078 C.3     1  UNL1        0.1693
     45 O          15.8751   68.6717   -5.1769 O.3     1  UNL1       -0.3794
     46 H          15.1771   68.0610   -4.9041 H       1  UNL1        0.2105
@<TRIPOS>BOND
     1    29    30    1
     2    29    28    1
     3    29    36    1
     4    30    31    1
     5    30    41    1
     6    31    32    1
     7    31    34    1
     8    32    33    1
     9    32    35    1
    10    33    44    1
    11    33    36    1
    12    44    45    1
    13    39    40    1
    14    39    41   am
    15    39    42    2
    16    41    43    1
    17    28    25    1
    18    34    37    1
    19    35    38    1
    20    45    46    1
    21    15    16   ar
    22    15    20   ar
    23    15     6    1
    24    16    17   ar
    25    16    21    2
    26    17    18   ar
    27    17    23    1
    28    18    19   ar
    29    18    22    2
    30    19    20   ar
    31     6     7    1
    32     6    11    1
    33     7     8    1
    34     7     9    1
    35     8    13    1
    36     9    10    1
    37     9    12    1
    38    10    11    1
    39    10     5    1
    40    12    14    1
    41     5     4    1
    42     4     1    1
    43     1     2    2
    44     1     3    1
    45     1    24    1
    46    24    25    1
    47    25    26    2
    48    25    27    1
@<TRIPOS>MOLECULE
UD1
 46 48 0 0 0
SMALL
GASTEIGER

@<TRIPOS>ATOM
      1 P          21.5926   71.5319   -0.5449 P.3     1  UNL1        0.2189
      2 O          22.7789   71.0317   -1.2737 O.2     1  UNL1       -0.5170
      3 O          20.9910   70.3544    0.3738 O.3     1  UNL1       -0.4371
      4 O          20.4760   72.0098   -1.6022 O.3     1  UNL1       -0.3112
      5 C          20.2505   70.9137   -2.4898 C.3     1  UNL1        0.1811
      6 C          17.8705   70.7527   -5.1800 C.3     1  UNL1        0.2383
      7 C          17.8136   69.3489   -4.5269 C.3     1  UNL1        0.1895
      8 O          16.5100   68.7796   -4.6516 O.3     1  UNL1       -0.3779
      9 C          18.1394   69.6662   -3.0442 C.3     1  UNL1        0.1713
     10 C          18.8535   71.0305   -3.1015 C.3     1  UNL1        0.1764
     11 O          18.9557   71.4042   -4.4861 O.3     1  UNL1       -0.3308
     12 O          16.9376   69.7551   -2.2758 O.3     1  UNL1       -0.3794
     13 H          16.5419   67.9109   -4.2276 H       1  UNL1        0.2106
     14 H          16.5082   68.8909   -2.3280 H       1  UNL1        0.2105
     15 N          18.1611   70.6486   -6.6104 N.ar    1  UNL1       -0.2551
     16 C          17.1490   70.5890   -7.4933 C.ar    1  UNL1        0.3323
     17 N          17.3868   70.4969   -8.8152 N.ar    1  UNL1       -0.2743
     18 C          18.6530   70.4536   -9.2763 C.ar    1  UNL1        0.2626
     19 C          19.7279   70.5095   -8.3575 C.ar    1  UNL1        0.0795
     20 C          19.4610   70.6070   -7.0374 C.ar    1  UNL1        0.0869
     21 O          16.0015   70.6271   -7.0928 O.2     1  UNL1       -0.2464
     22 O          18.8692   70.3655  -10.4709 O.2     1  UNL1       -0.2670
     23 H          16.6447   70.4598   -9.4381 H       1  UNL1        0.1734
     24 O          22.0182   72.7746    0.3843 O.3     1  UNL1       -0.2703
     25 P          22.3080   72.1803    1.8513 P.3     1  UNL1        0.2208
     26 O          22.9897   70.8731    1.7279 O.2     1  UNL1       -0.5170
     27 O          20.9163   71.9869    2.6374 O.3     1  UNL1       -0.4371
     28 O          23.2472   73.2001    2.6689 O.3     1  UNL1       -0.2865
     29 C          22.4288   74.3109    3.0395 C.3     1  UNL1        0.2611
     30 C          23.1194   75.6096    2.6193 C.3     1  UNL1        0.1582
     31 C          24.4881   75.6937    3.3041 C.3     1  UNL1        0.1625
     32 C          24.2925   75.5182    4.8137 C.3     1  UNL1        0.1686
     33 C          23.5159   74.2246    5.0686 C.3     1  UNL1        0.1760
     34 O          25.0786   76.9675    3.0393 O.3     1  UNL1       -0.3801
     35 O          25.5670   75.4464    5.4557 O.3     1  UNL1       -0.3794
     36 O          22.2315   74.3039    4.4517 O.3     1  UNL1       -0.3263
     37 H          25.9356   76.9768    3.4873 H       1  UNL1        0.2105
     38 H          25.3978   75.3355    6.4020 H       1  UNL1        0.2105
     39 C          24.4613   75.2167    0.6245 C.2     1  UNL1        0.2231
     40 C          24.6433   75.2303   -0.8718 C.3     1  UNL1        0.0946
     41 N          23.2964   75.6221    1.1657 N.am    1  UNL1       -0.2994
     42 O          25.3641   74.8412    1.3417 O.2     1  UNL1       -0.2751
     43 H          22.5739   75.9229    0.5921 H       1  UNL1        0.1496
     44 C          23.3434   74.0232    6.5755 C.3     1  UNL1        0.1693
     45 O          23.2489   75.2958    7.2188 O.3     1  UNL1       -0.3794
     46 H          23.1417   75.1241    8.1641 H       1  UNL1        0.2105
@<TRIPOS>BOND
     1    29    30    1
     2    29    28    1
     3    29    36    1
     4    30    31    1
     5    30    41    1
     6    31    32    1
     7    31    34    1
     8    32    33    1
     9    32    35    1
    10    33    44    1
    11    33    36    1
    12    44    45    1
    13    39    40    1
    14    39    41   am
    15    39    42    2
    16    41    43    1
    17    28    25    1
    18    34    37    1
    19    35    38    1
    20    45    46    1
    21    15    16   ar
    22    15    20   ar
    23    15     6    1
    24    16    17   ar
    25    16    21    2
    26    17    18   ar
    27    17    23    1
    28    18    19   ar
    29    18    22    2
    30    19    20   ar
    31     6     7    1
    32     6    11    1
    33     7     8    1
    34     7     9    1
    35     8    13    1
    36     9    10    1
    37     9    12    1
    38    10    11    1
    39    10     5    1
    40    12    14    1
    41     5     4    1
    42     4     1    1
    43     1     2    2
    44     1     3    1
    45     1    24    1
    46    24    25    1
    47    25    26    2
    48    25    27    1
@<TRIPOS>MOLECULE
UD1
 46 48 0 0 0
SMALL
GASTEIGER

@<TRIPOS>ATOM
      1 P          22.9833   73.1885   -3.5842 P.3     1  UNL1        0.2189
      2 O          23.0461   74.6539   -3.7771 O.2     1  UNL1       -0.5170
      3 O          24.1969   72.4899   -4.3790 O.3     1  UNL1       -0.4371
      4 O          21.5820   72.6328   -4.1504 O.3     1  UNL1       -0.3112
      5 C          20.8911   72.0493   -3.0447 C.3     1  UNL1        0.1811
      6 C          18.2709   71.0213   -5.2819 C.3     1  UNL1        0.2383
      7 C          18.6180   69.7436   -4.4775 C.3     1  UNL1        0.1895
      8 O          17.4706   68.9069   -4.3269 O.3     1  UNL1       -0.3779
      9 C          19.0591   70.3290   -3.1108 C.3     1  UNL1        0.1713
     10 C          19.4347   71.7884   -3.4324 C.3     1  UNL1        0.1764
     11 O          19.2649   71.9738   -4.8480 O.3     1  UNL1       -0.3308
     12 O          17.9814   70.2779   -2.1733 O.3     1  UNL1       -0.3794
     13 H          17.7529   68.1327   -3.8204 H       1  UNL1        0.2106
     14 H          17.7538   69.3455   -2.0600 H       1  UNL1        0.2105
     15 N          18.3840   70.7763   -6.7202 N.ar    1  UNL1       -0.2551
     16 C          17.2786   70.5207   -7.4415 C.ar    1  UNL1        0.3323
     17 N          17.3524   70.2955   -8.7666 N.ar    1  UNL1       -0.2743
     18 C          18.5459   70.3140   -9.3936 C.ar    1  UNL1        0.2626
     19 C          19.7182   70.5759   -8.6453 C.ar    1  UNL1        0.0795
     20 C          19.6149   70.8036   -7.3183 C.ar    1  UNL1        0.0869
     21 O          16.1949   70.5007   -6.8903 O.2     1  UNL1       -0.2464
     22 O          18.6143   70.1058  -10.5908 O.2     1  UNL1       -0.2670
     23 H          16.5443   70.1175   -9.2722 H       1  UNL1        0.1734
     24 O          23.1011   72.8481   -2.0160 O.3     1  UNL1       -0.2703
     25 P          23.1513   74.2554   -1.2374 P.3     1  UNL1        0.2208
     26 O          22.0899   75.1451   -1.7578 O.2     1  UNL1       -0.5170
     27 O          24.5882   74.9449   -1.4656 O.3     1  UNL1       -0.4371
     28 O          22.9202   74.0080    0.3362 O.3     1  UNL1       -0.2865
     29 C          23.0982   72.6093    0.5664 C.3     1  UNL1        0.2611
     30 C          21.8818   72.0619    1.3151 C.3     1  UNL1        0.1582
     31 C          21.7300   72.8137    2.6422 C.3     1  UNL1        0.1625
     32 C          23.0561   72.7330    3.4057 C.3     1  UNL1        0.1686
     33 C          24.1837   73.2328    2.5002 C.3     1  UNL1        0.1760
     34 O          20.6904   72.2129    3.4167 O.3     1  UNL1       -0.3801
     35 O          22.9840   73.5492    4.5763 O.3     1  UNL1       -0.3794
     36 O          24.2763   72.4030    1.3429 O.3     1  UNL1       -0.3263
     37 H          20.6292   72.7161    4.2403 H       1  UNL1        0.2105
     38 H          23.8376   73.4700    5.0255 H       1  UNL1        0.2105
     39 C          19.9286   73.3613    0.6587 C.2     1  UNL1        0.2231
     40 C          18.6903   73.5581   -0.1780 C.3     1  UNL1        0.0946
     41 N          20.6790   72.2537    0.5022 N.am    1  UNL1       -0.2994
     42 O          20.2493   74.1999    1.4737 O.2     1  UNL1       -0.2751
     43 H          20.4225   71.5824   -0.1498 H       1  UNL1        0.1496
     44 C          25.5084   73.1869    3.2646 C.3     1  UNL1        0.1693
     45 O          26.4233   74.1219    2.6895 O.3     1  UNL1       -0.3794
     46 H          27.2427   74.0610    3.1989 H       1  UNL1        0.2105
@<TRIPOS>BOND
     1    29    30    1
     2    29    28    1
     3    29    36    1
     4    30    31    1
     5    30    41    1
     6    31    32    1
     7    31    34    1
     8    32    33    1
     9    32    35    1
    10    33    44    1
    11    33    36    1
    12    44    45    1
    13    39    40    1
    14    39    41   am
    15    39    42    2
    16    41    43    1
    17    28    25    1
    18    34    37    1
    19    35    38    1
    20    45    46    1
    21    15    16   ar
    22    15    20   ar
    23    15     6    1
    24    16    17   ar
    25    16    21    2
    26    17    18   ar
    27    17    23    1
    28    18    19   ar
    29    18    22    2
    30    19    20   ar
    31     6     7    1
    32     6    11    1
    33     7     8    1
    34     7     9    1
    35     8    13    1
    36     9    10    1
    37     9    12    1
    38    10    11    1
    39    10     5    1
    40    12    14    1
    41     5     4    1
    42     4     1    1
    43     1     2    2
    44     1     3    1
    45     1    24    1
    46    24    25    1
    47    25    26    2
    48    25    27    1
@<TRIPOS>MOLECULE
UD1
 46 48 0 0 0
SMALL
GASTEIGER

@<TRIPOS>ATOM
      1 P          17.3770   69.7053   -2.8219 P.3     1  UNL1        0.2189
      2 O          18.6359   69.6984   -2.0448 O.2     1  UNL1       -0.5170
      3 O          16.8768   71.2229   -3.0199 O.3     1  UNL1       -0.4371
      4 O          16.2524   68.8699   -2.0280 O.3     1  UNL1       -0.3112
      5 C          15.5104   69.8104   -1.2500 C.3     1  UNL1        0.1811
      6 C          12.8527   68.2142    0.5710 C.3     1  UNL1        0.2383
      7 C          12.7006   69.7199    0.9025 C.3     1  UNL1        0.1895
      8 O          11.3329   70.0556    1.1390 O.3     1  UNL1       -0.3779
      9 C          13.2192   70.3930   -0.3949 C.3     1  UNL1        0.1713
     10 C          14.0794   69.3035   -1.0638 C.3     1  UNL1        0.1764
     11 O          14.0756   68.1587   -0.1938 O.3     1  UNL1       -0.3308
     12 O          12.1260   70.7638   -1.2376 O.3     1  UNL1       -0.3794
     13 H          11.3072   71.0015    1.3393 H       1  UNL1        0.2106
     14 H          11.5942   71.4002   -0.7412 H       1  UNL1        0.2105
     15 N          12.9734   67.4223    1.7956 N.ar    1  UNL1       -0.2551
     16 C          12.5748   66.1384    1.8009 C.ar    1  UNL1        0.3323
     17 N          12.6778   65.3852    2.9119 N.ar    1  UNL1       -0.2743
     18 C          13.1775   65.9137    4.0472 C.ar    1  UNL1        0.2626
     19 C          13.5953   67.2658    4.0573 C.ar    1  UNL1        0.0795
     20 C          13.4858   67.9971    2.9274 C.ar    1  UNL1        0.0869
     21 O          12.1221   65.6474    0.7847 O.2     1  UNL1       -0.2464
     22 O          13.2666   65.2350    5.0536 O.2     1  UNL1       -0.2670
     23 H          12.3898   64.4595    2.8964 H       1  UNL1        0.1734
     24 O          17.6305   69.0308   -4.2605 O.3     1  UNL1       -0.2703
     25 P          17.6627   70.2274   -5.3358 P.3     1  UNL1        0.2208
     26 O          16.7701   71.3184   -4.8865 O.2     1  UNL1       -0.5170
     27 O          17.1621   69.6795   -6.7646 O.3     1  UNL1       -0.4371
     28 O          19.1657   70.7864   -5.4738 O.3     1  UNL1       -0.2865
     29 C          19.0681   72.2025   -5.6353 C.3     1  UNL1        0.2611
     30 C          19.7923   72.6157   -6.9178 C.3     1  UNL1        0.1582
     31 C          21.2595   72.1813   -6.8271 C.3     1  UNL1        0.1625
     32 C          21.8571   72.7407   -5.5318 C.3     1  UNL1        0.1686
     33 C          20.9787   72.3154   -4.3533 C.3     1  UNL1        0.1760
     34 O          21.9802   72.6916   -7.9504 O.3     1  UNL1       -0.3801
     35 O          23.1786   72.2272   -5.3544 O.3     1  UNL1       -0.3794
     36 O          19.6652   72.8497   -4.5136 O.3     1  UNL1       -0.3263
     37 H          22.8955   72.3950   -7.8531 H       1  UNL1        0.2105
     38 H          23.5164   72.6031   -4.5290 H       1  UNL1        0.2105
     39 C          19.6638   70.8193   -8.5580 C.2     1  UNL1        0.2231
     40 C          19.0119   70.1531   -9.7427 C.3     1  UNL1        0.0946
     41 N          19.1590   71.9680   -8.0683 N.am    1  UNL1       -0.2994
     42 O          20.6435   70.3213   -8.0457 O.2     1  UNL1       -0.2751
     43 H          18.3751   72.3668   -8.4783 H       1  UNL1        0.1496
     44 C          21.5850   72.8419   -3.0508 C.3     1  UNL1        0.1693
     45 O          22.2423   74.0860   -3.2996 O.3     1  UNL1       -0.3794
     46 H          22.6096   74.3821   -2.4558 H       1  UNL1        0.2105
@<TRIPOS>BOND
     1    29    30    1
     2    29    28    1
     3    29    36    1
     4    30    31    1
     5    30    41    1
     6    31    32    1
     7    31    34    1
     8    32    33    1
     9    32    35    1
    10    33    44    1
    11    33    36    1
    12    44    45    1
    13    39    40    1
    14    39    41   am
    15    39    42    2
    16    41    43    1
    17    28    25    1
    18    34    37    1
    19    35    38    1
    20    45    46    1
    21    15    16   ar
    22    15    20   ar
    23    15     6    1
    24    16    17   ar
    25    16    21    2
    26    17    18   ar
    27    17    23    1
    28    18    19   ar
    29    18    22    2
    30    19    20   ar
    31     6     7    1
    32     6    11    1
    33     7     8    1
    34     7     9    1
    35     8    13    1
    36     9    10    1
    37     9    12    1
    38    10    11    1
    39    10     5    1
    40    12    14    1
    41     5     4    1
    42     4     1    1
    43     1     2    2
    44     1     3    1
    45     1    24    1
    46    24    25    1
    47    25    26    2
    48    25    27    1
@<TRIPOS>MOLECULE
UD1
 46 48 0 0 0
SMALL
GASTEIGER

@<TRIPOS>ATOM
      1 P          18.5141   73.0733   -1.2192 P.3     1  UNL1        0.2189
      2 O          17.6402   74.1754   -0.7605 O.2     1  UNL1       -0.5170
      3 O          19.6040   73.6483   -2.2555 O.3     1  UNL1       -0.4371
      4 O          17.6213   71.9496   -1.9494 O.3     1  UNL1       -0.3112
      5 C          16.9431   72.5961   -3.0277 C.3     1  UNL1        0.1811
      6 C          16.6195   70.4527   -5.8962 C.3     1  UNL1        0.2383
      7 C          17.3131   69.5701   -4.8284 C.3     1  UNL1        0.1895
      8 O          16.9594   68.1964   -4.9926 O.3     1  UNL1       -0.3779
      9 C          16.7301   70.1377   -3.5081 C.3     1  UNL1        0.1713
     10 C          16.2399   71.5475   -3.8909 C.3     1  UNL1        0.1764
     11 O          16.5670   71.7549   -5.2755 O.3     1  UNL1       -0.3308
     12 O          15.6428   69.3293   -3.0530 O.3     1  UNL1       -0.3794
     13 H          17.4221   67.7033   -4.3010 H       1  UNL1        0.2106
     14 H          16.0009   68.4469   -2.8878 H       1  UNL1        0.2105
     15 N          17.4112   70.4987   -7.1261 N.ar    1  UNL1       -0.2551
     16 C          16.7898   70.5677   -8.3162 C.ar    1  UNL1        0.3323
     17 N          17.4927   70.6151   -9.4634 N.ar    1  UNL1       -0.2743
     18 C          18.8403   70.5846   -9.4363 C.ar    1  UNL1        0.2626
     19 C          19.5072   70.5060   -8.1905 C.ar    1  UNL1        0.0795
     20 C          18.7778   70.4651   -7.0549 C.ar    1  UNL1        0.0869
     21 O          15.5748   70.5961   -8.3571 O.2     1  UNL1       -0.2464
     22 O          19.4767   70.6227  -10.4731 O.2     1  UNL1       -0.2670
     23 H          17.0281   70.6696  -10.3127 H       1  UNL1        0.1734
     24 O          19.2659   72.4225    0.0458 O.3     1  UNL1       -0.2703
     25 P          20.6500   71.8101   -0.5006 P.3     1  UNL1        0.2208
     26 O          20.4449   71.2639   -1.8602 O.2     1  UNL1       -0.5170
     27 O          21.1415   70.6328    0.4815 O.3     1  UNL1       -0.4371
     28 O          21.7677   72.9672   -0.5502 O.3     1  UNL1       -0.2865
     29 C          23.0394   72.3166   -0.5202 C.3     1  UNL1        0.2611
     30 C          23.9666   73.0642    0.4397 C.3     1  UNL1        0.1582
     31 C          24.1121   74.5153   -0.0322 C.3     1  UNL1        0.1625
     32 C          24.5574   74.5115   -1.4985 C.3     1  UNL1        0.1686
     33 C          23.5837   73.6571   -2.3128 C.3     1  UNL1        0.1760
     34 O          25.0903   75.1829    0.7670 O.3     1  UNL1       -0.3801
     35 O          24.5576   75.8490   -2.0013 O.3     1  UNL1       -0.3794
     36 O          23.6014   72.3140   -1.8308 O.3     1  UNL1       -0.3263
     37 H          25.1492   76.0900    0.4367 H       1  UNL1        0.2105
     38 H          24.8425   75.8005   -2.9249 H       1  UNL1        0.2105
     39 C          23.4933   71.9304    2.5432 C.2     1  UNL1        0.2231
     40 C          22.9060   71.9077    3.9313 C.3     1  UNL1        0.0946
     41 N          23.3966   73.0418    1.7884 N.am    1  UNL1       -0.2994
     42 O          24.0525   70.9477    2.1053 O.2     1  UNL1       -0.2751
     43 H          22.9489   73.8283    2.1385 H       1  UNL1        0.1496
     44 C          24.0010   73.6733   -3.7848 C.3     1  UNL1        0.1693
     45 O          24.1656   72.3316   -4.2484 O.3     1  UNL1       -0.3794
     46 H          24.4282   72.3867   -5.1772 H       1  UNL1        0.2105
@<TRIPOS>BOND
     1    29    30    1
     2    29    28    1
     3    29    36    1
     4    30    31    1
     5    30    41    1
     6    31    32    1
     7    31    34    1
     8    32    33    1
     9    32    35    1
    10    33    44    1
    11    33    36    1
    12    44    45    1
    13    39    40    1
    14    39    41   am
    15    39    42    2
    16    41    43    1
    17    28    25    1
    18    34    37    1
    19    35    38    1
    20    45    46    1
    21    15    16   ar
    22    15    20   ar
    23    15     6    1
    24    16    17   ar
    25    16    21    2
    26    17    18   ar
    27    17    23    1
    28    18    19   ar
    29    18    22    2
    30    19    20   ar
    31     6     7    1
    32     6    11    1
    33     7     8    1
    34     7     9    1
    35     8    13    1
    36     9    10    1
    37     9    12    1
    38    10    11    1
    39    10     5    1
    40    12    14    1
    41     5     4    1
    42     4     1    1
    43     1     2    2
    44     1     3    1
    45     1    24    1
    46    24    25    1
    47    25    26    2
    48    25    27    1
