@<TRIPOS>MOLECULE
UDP-glaA
 43 45 0 0 0
SMALL
GASTEIGER

@<TRIPOS>ATOM
      1 P          21.5281   73.7239   -5.6240 P.3     1  UNL1        0.2189
      2 O          20.4053   74.6818   -4.9612 O.3     1  UNL1       -0.4371
      3 O          22.7705   74.4290   -6.0835 O.2     1  UNL1       -0.5170
      4 O          20.7209   72.9077   -6.7632 O.3     1  UNL1       -0.3112
      5 C          21.3574   72.6732   -8.0078 C.3     1  UNL1        0.1811
      6 O          19.9693   70.7259   -8.2439 O.3     1  UNL1       -0.3308
      7 O          18.5857   72.2097  -10.4520 O.3     1  UNL1       -0.3794
      8 O          16.8642   72.5151   -8.3594 O.3     1  UNL1       -0.3779
      9 C          19.1264   72.7089   -9.2288 C.3     1  UNL1        0.1713
     10 C          18.2336   72.3292   -8.0663 C.3     1  UNL1        0.1895
     11 C          20.3972   71.9270   -8.9232 C.3     1  UNL1        0.1764
     12 C          18.5927   70.8680   -7.8565 C.3     1  UNL1        0.2383
     13 H          19.2093   72.4426  -11.1608 H       1  UNL1        0.2105
     14 H          16.7384   73.4522   -8.5879 H       1  UNL1        0.2106
     15 O          16.1261   70.2460   -6.6300 O.2     1  UNL1       -0.2464
     16 O          18.1571   69.3111   -2.6002 O.2     1  UNL1       -0.2670
     17 N          18.4477   70.4588   -6.4887 N.ar    1  UNL1       -0.2551
     18 N          17.1390   69.7814   -4.6240 N.ar    1  UNL1       -0.2743
     19 C          17.1639   70.1704   -5.9698 C.ar    1  UNL1        0.3323
     20 C          19.5704   70.3469   -5.6760 C.ar    1  UNL1        0.0869
     21 C          19.5302   69.9743   -4.3948 C.ar    1  UNL1        0.0795
     22 C          18.2283   69.6561   -3.7757 C.ar    1  UNL1        0.2626
     23 H          16.2265   69.5697   -4.2294 H       1  UNL1        0.1734
     24 O          21.7717   72.6065   -4.4806 O.3     1  UNL1       -0.2703
     25 P          23.0286   72.3530   -3.4965 P.3     1  UNL1        0.2208
     26 O          24.2106   73.2265   -4.1717 O.3     1  UNL1       -0.4371
     27 O          23.3680   70.9044   -3.2913 O.2     1  UNL1       -0.5170
     28 O          22.6551   73.1483   -2.1430 O.3     1  UNL1       -0.2858
     29 O          21.5167   71.5619   -0.8064 O.3     1  UNL1       -0.3226
     30 O          21.7318   74.8461    1.7328 O.3     1  UNL1       -0.3794
     31 O          21.1303   75.1996   -1.0990 O.3     1  UNL1       -0.3775
     32 O          20.9706   72.1988    1.9386 O.3     1  UNL1       -0.3792
     33 C          22.1298   73.9301    0.7165 C.3     1  UNL1        0.1718
     34 C          21.1205   73.9395   -0.4365 C.3     1  UNL1        0.1968
     35 C          22.2202   72.5268    1.3223 C.3     1  UNL1        0.1723
     36 C          21.4459   72.8373   -1.4523 C.3     1  UNL1        0.2706
     37 C          22.5064   71.5094    0.2199 C.3     1  UNL1        0.1830
     38 H          22.3965   74.8051    2.4414 H       1  UNL1        0.2105
     39 H          20.4849   75.1547   -1.8245 H       1  UNL1        0.2106
     40 H          20.3215   72.0107    1.2397 H       1  UNL1        0.2106
     41 O          23.5327   69.8806    1.5606 O.co2   1  UNL1       -0.5466
     42 O          21.6150   69.2811    0.4836 O.co2   1  UNL1       -0.5466
     43 C          22.4749   70.1096    0.7456 C.2     1  UNL1        0.0799
@<TRIPOS>UNITY_ATOM_ATTR
41 1
charge -1
@<TRIPOS>BOND
     1     1     4    1
     2     1    24    1
     3     1     2    1
     4     1     3    2
     5    25    28    1
     6    25    24    1
     7    25    26    1
     8    25    27    2
     9     6    11    1
    10     6    12    1
    11    29    36    1
    12    29    37    1
    13     7     9    1
    14     7    13    1
    15     8    10    1
    16     8    14    1
    17     4     5    1
    18    28    36    1
    19    30    33    1
    20    30    38    1
    21    31    34    1
    22    31    39    1
    23    32    35    1
    24    32    40    1
    25    41    43   ar
    26    15    19    2
    27    42    43   ar
    28    16    22    2
    29    17    12    1
    30    17    19   ar
    31    17    20   ar
    32    18    19   ar
    33    18    22   ar
    34    18    23    1
    35     9    10    1
    36     9    11    1
    37    10    12    1
    38    11     5    1
    39    33    34    1
    40    33    35    1
    41    34    36    1
    42    35    37    1
    43    37    43    1
    44    20    21   ar
    45    21    22   ar
@<TRIPOS>MOLECULE
UDP-glaA
 43 45 0 0 0
SMALL
GASTEIGER

@<TRIPOS>ATOM
      1 P          22.9703   71.8171   -3.4069 P.3     1  UNL1        0.2189
      2 O          23.7033   72.8905   -4.3702 O.3     1  UNL1       -0.4371
      3 O          23.7329   70.5443   -3.1818 O.2     1  UNL1       -0.5170
      4 O          21.4996   71.6493   -4.0584 O.3     1  UNL1       -0.3112
      5 C          20.6490   70.6319   -3.5579 C.3     1  UNL1        0.1811
      6 O          18.8718   71.8294   -4.6451 O.3     1  UNL1       -0.3308
      7 O          17.0783   70.7371   -2.5046 O.3     1  UNL1       -0.3794
      8 O          16.5414   69.1046   -4.6217 O.3     1  UNL1       -0.3779
      9 C          18.1907   70.1203   -3.1525 C.3     1  UNL1        0.1713
     10 C          17.8165   69.7095   -4.5609 C.3     1  UNL1        0.1895
     11 C          19.2427   71.1930   -3.4023 C.3     1  UNL1        0.1764
     12 C          17.8699   71.0350   -5.3012 C.3     1  UNL1        0.2383
     13 H          17.3759   71.0178   -1.6224 H       1  UNL1        0.2105
     14 H          16.5583   68.3268   -4.0378 H       1  UNL1        0.2106
     15 O          16.0329   70.4843   -7.3743 O.2     1  UNL1       -0.2464
     16 O          19.3608   70.4502  -10.5622 O.2     1  UNL1       -0.2670
     17 N          18.2286   70.8779   -6.6818 N.ar    1  UNL1       -0.2551
     18 N          17.6914   70.4672   -8.9603 N.ar    1  UNL1       -0.2743
     19 C          17.2295   70.6019   -7.6444 C.ar    1  UNL1        0.3323
     20 C          19.5583   70.9971   -7.0704 C.ar    1  UNL1        0.0869
     21 C          19.9826   70.8665   -8.3292 C.ar    1  UNL1        0.0795
     22 C          19.0031   70.5768   -9.3951 C.ar    1  UNL1        0.2626
     23 H          16.9907   70.2680   -9.6692 H       1  UNL1        0.1734
     24 O          22.6781   72.6733   -2.0665 O.3     1  UNL1       -0.2703
     25 P          22.1881   74.2010   -1.8701 P.3     1  UNL1        0.2208
     26 O          20.6785   74.1841   -2.4505 O.3     1  UNL1       -0.4371
     27 O          23.0860   75.2226   -2.5072 O.2     1  UNL1       -0.5170
     28 O          22.0106   74.3716   -0.2753 O.3     1  UNL1       -0.2858
     29 O          21.1315   72.2978    0.4500 O.3     1  UNL1       -0.3226
     30 O          21.6767   74.3169    4.0424 O.3     1  UNL1       -0.3794
     31 O          20.6274   75.7095    1.7045 O.3     1  UNL1       -0.3775
     32 O          21.0134   71.7506    3.2651 O.3     1  UNL1       -0.3792
     33 C          21.9280   73.9135    2.6991 C.3     1  UNL1        0.1718
     34 C          20.7490   74.2941    1.7973 C.3     1  UNL1        0.1968
     35 C          22.1425   72.3977    2.6692 C.3     1  UNL1        0.1723
     36 C          20.9326   73.7141    0.3894 C.3     1  UNL1        0.2706
     37 C          22.2721   71.9262    1.2224 C.3     1  UNL1        0.1830
     38 H          22.4458   74.0544    4.5763 H       1  UNL1        0.2105
     39 H          19.8765   75.9017    1.1180 H       1  UNL1        0.2106
     40 H          20.2660   71.8009    2.6455 H       1  UNL1        0.2106
     41 O          23.3694   69.9674    1.9027 O.co2   1  UNL1       -0.5466
     42 O          21.6079   69.7283    0.4755 O.co2   1  UNL1       -0.5466
     43 C          22.3535   70.4352    1.1380 C.2     1  UNL1        0.0799
@<TRIPOS>UNITY_ATOM_ATTR
41 1
charge -1
@<TRIPOS>BOND
     1     1     4    1
     2     1    24    1
     3     1     2    1
     4     1     3    2
     5    25    28    1
     6    25    24    1
     7    25    26    1
     8    25    27    2
     9     6    11    1
    10     6    12    1
    11    29    36    1
    12    29    37    1
    13     7     9    1
    14     7    13    1
    15     8    10    1
    16     8    14    1
    17     4     5    1
    18    28    36    1
    19    30    33    1
    20    30    38    1
    21    31    34    1
    22    31    39    1
    23    32    35    1
    24    32    40    1
    25    41    43   ar
    26    15    19    2
    27    42    43   ar
    28    16    22    2
    29    17    12    1
    30    17    19   ar
    31    17    20   ar
    32    18    19   ar
    33    18    22   ar
    34    18    23    1
    35     9    10    1
    36     9    11    1
    37    10    12    1
    38    11     5    1
    39    33    34    1
    40    33    35    1
    41    34    36    1
    42    35    37    1
    43    37    43    1
    44    20    21   ar
    45    21    22   ar
@<TRIPOS>MOLECULE
UDP-glaA
 43 45 0 0 0
SMALL
GASTEIGER

@<TRIPOS>ATOM
      1 P          22.9598   71.6751   -2.8192 P.3     1  UNL1        0.2189
      2 O          23.7861   72.9814   -3.2969 O.3     1  UNL1       -0.4371
      3 O          23.5694   70.3616   -3.2133 O.2     1  UNL1       -0.5170
      4 O          21.4593   71.9439   -3.3594 O.3     1  UNL1       -0.3112
      5 C          20.5933   70.8354   -3.5337 C.3     1  UNL1        0.1811
      6 O          18.7544   71.9096   -4.6468 O.3     1  UNL1       -0.3308
      7 O          17.0121   70.7155   -2.5185 O.3     1  UNL1       -0.3794
      8 O          16.6047   69.0401   -4.6310 O.3     1  UNL1       -0.3779
      9 C          18.1689   70.1683   -3.1509 C.3     1  UNL1        0.1713
     10 C          17.8373   69.7264   -4.5606 C.3     1  UNL1        0.1895
     11 C          19.1521   71.3053   -3.3962 C.3     1  UNL1        0.1764
     12 C          17.8131   71.0486   -5.3085 C.3     1  UNL1        0.2383
     13 H          17.2813   71.0197   -1.6350 H       1  UNL1        0.2105
     14 H          16.6654   68.2682   -4.0422 H       1  UNL1        0.2106
     15 O          16.0315   70.4041   -7.4027 O.2     1  UNL1       -0.2464
     16 O          19.3961   70.5307  -10.5495 O.2     1  UNL1       -0.2670
     17 N          18.1962   70.9074   -6.6842 N.ar    1  UNL1       -0.2551
     18 N          17.7082   70.4671   -8.9683 N.ar    1  UNL1       -0.2743
     19 C          17.2240   70.5806   -7.6584 C.ar    1  UNL1        0.3323
     20 C          19.5230   71.0920   -7.0567 C.ar    1  UNL1        0.0869
     21 C          19.9688   70.9807   -8.3100 C.ar    1  UNL1        0.0795
     22 C          19.0181   70.6411   -9.3872 C.ar    1  UNL1        0.2626
     23 H          17.0271   70.2322   -9.6852 H       1  UNL1        0.1734
     24 O          22.8172   71.8999   -1.2241 O.3     1  UNL1       -0.2703
     25 P          22.4575   70.8652   -0.0356 P.3     1  UNL1        0.2208
     26 O          23.7217   69.8563   -0.0267 O.3     1  UNL1       -0.4371
     27 O          21.1255   70.1887   -0.1899 O.2     1  UNL1       -0.5170
     28 O          22.6141   71.7281    1.3190 O.3     1  UNL1       -0.2858
     29 O          21.7361   72.3871    3.4153 O.3     1  UNL1       -0.3226
     30 O          21.0819   75.7726    1.0937 O.3     1  UNL1       -0.3794
     31 O          20.6258   73.1106   -0.0069 O.3     1  UNL1       -0.3775
     32 O          20.8736   75.1023    3.7652 O.3     1  UNL1       -0.3792
     33 C          21.7334   74.5964    1.5653 C.3     1  UNL1        0.1718
     34 C          20.8298   73.3731    1.3774 C.3     1  UNL1        0.1968
     35 C          22.0690   74.7770    3.0483 C.3     1  UNL1        0.1723
     36 C          21.4490   72.1341    2.0360 C.3     1  UNL1        0.2706
     37 C          22.6387   73.4753    3.6078 C.3     1  UNL1        0.1830
     38 H          21.6878   76.5200    1.2344 H       1  UNL1        0.2105
     39 H          20.0577   72.3248   -0.0758 H       1  UNL1        0.2106
     40 H          20.3296   74.2999    3.8390 H       1  UNL1        0.2106
     41 O          24.1202   73.9837    5.3543 O.co2   1  UNL1       -0.5466
     42 O          22.0243   73.3014    5.9363 O.co2   1  UNL1       -0.5466
     43 C          22.8604   73.5648    5.0842 C.2     1  UNL1        0.0799
@<TRIPOS>UNITY_ATOM_ATTR
41 1
charge -1
@<TRIPOS>BOND
     1     1     4    1
     2     1    24    1
     3     1     2    1
     4     1     3    2
     5    25    28    1
     6    25    24    1
     7    25    26    1
     8    25    27    2
     9     6    11    1
    10     6    12    1
    11    29    36    1
    12    29    37    1
    13     7     9    1
    14     7    13    1
    15     8    10    1
    16     8    14    1
    17     4     5    1
    18    28    36    1
    19    30    33    1
    20    30    38    1
    21    31    34    1
    22    31    39    1
    23    32    35    1
    24    32    40    1
    25    41    43   ar
    26    15    19    2
    27    42    43   ar
    28    16    22    2
    29    17    12    1
    30    17    19   ar
    31    17    20   ar
    32    18    19   ar
    33    18    22   ar
    34    18    23    1
    35     9    10    1
    36     9    11    1
    37    10    12    1
    38    11     5    1
    39    33    34    1
    40    33    35    1
    41    34    36    1
    42    35    37    1
    43    37    43    1
    44    20    21   ar
    45    21    22   ar
@<TRIPOS>MOLECULE
UDP-glaA
 43 45 0 0 0
SMALL
GASTEIGER

@<TRIPOS>ATOM
      1 P          22.7727   71.6811   -2.1751 P.3     1  UNL1        0.2189
      2 O          23.1907   73.2413   -2.2668 O.3     1  UNL1       -0.4371
      3 O          23.4629   70.7820   -3.1587 O.2     1  UNL1       -0.5170
      4 O          21.1577   71.7048   -2.2576 O.3     1  UNL1       -0.3112
      5 C          20.5399   71.4697   -3.5115 C.3     1  UNL1        0.1811
      6 O          18.6073   72.2620   -4.6996 O.3     1  UNL1       -0.3308
      7 O          16.9851   71.0819   -2.4709 O.3     1  UNL1       -0.3794
      8 O          16.7509   69.2058   -4.4359 O.3     1  UNL1       -0.3779
      9 C          18.1921   70.6010   -3.0622 C.3     1  UNL1        0.1713
     10 C          17.9097   70.0137   -4.4289 C.3     1  UNL1        0.1895
     11 C          19.0591   71.8052   -3.4056 C.3     1  UNL1        0.1764
     12 C          17.7573   71.2608   -5.2831 C.3     1  UNL1        0.2383
     13 H          17.2205   71.4830   -1.6169 H       1  UNL1        0.2105
     14 H          16.8857   68.4950   -3.7858 H       1  UNL1        0.2106
     15 O          16.0302   70.3618   -7.3286 O.2     1  UNL1       -0.2464
     16 O          19.3998   70.4658  -10.4708 O.2     1  UNL1       -0.2670
     17 N          18.1564   71.0449   -6.6445 N.ar    1  UNL1       -0.2551
     18 N          17.7094   70.4137   -8.8918 N.ar    1  UNL1       -0.2743
     19 C          17.2115   70.5912   -7.5943 C.ar    1  UNL1        0.3323
     20 C          19.4720   71.2822   -7.0271 C.ar    1  UNL1        0.0869
     21 C          19.9311   71.1086   -8.2684 C.ar    1  UNL1        0.0795
     22 C          19.0090   70.6360   -9.3201 C.ar    1  UNL1        0.2626
     23 H          17.0479   70.0874   -9.5912 H       1  UNL1        0.1734
     24 O          23.0518   71.3218   -0.6233 O.3     1  UNL1       -0.2703
     25 P          22.1592   70.5137    0.4550 P.3     1  UNL1        0.2208
     26 O          23.2580   69.9552    1.5023 O.3     1  UNL1       -0.4371
     27 O          21.2792   69.4542   -0.1442 O.2     1  UNL1       -0.5170
     28 O          21.3647   71.6587    1.2684 O.3     1  UNL1       -0.2858
     29 O          21.7714   73.9891    1.2110 O.3     1  UNL1       -0.3226
     30 O          20.1604   73.4794    5.0089 O.3     1  UNL1       -0.3794
     31 O          22.0659   71.5494    3.9365 O.3     1  UNL1       -0.3775
     32 O          20.8538   75.6107    3.3943 O.3     1  UNL1       -0.3792
     33 C          20.3650   73.2556    3.6167 C.3     1  UNL1        0.1718
     34 C          21.8108   72.8221    3.3518 C.3     1  UNL1        0.1968
     35 C          20.0583   74.5490    2.8568 C.3     1  UNL1        0.1723
     36 C          22.0875   72.7454    1.8452 C.3     1  UNL1        0.2706
     37 C          20.4075   74.3721    1.3807 C.3     1  UNL1        0.1830
     38 H          19.2352   73.7535    5.1292 H       1  UNL1        0.2105
     39 H          22.9871   71.3134    3.7352 H       1  UNL1        0.2106
     40 H          21.7724   75.4875    3.1008 H       1  UNL1        0.2106
     41 O          21.4050   76.3534    0.6168 O.co2   1  UNL1       -0.5466
     42 O          19.2150   76.0192    0.0789 O.co2   1  UNL1       -0.5466
     43 C          20.2461   75.6516    0.6231 C.2     1  UNL1        0.0799
@<TRIPOS>UNITY_ATOM_ATTR
41 1
charge -1
@<TRIPOS>BOND
     1     1     4    1
     2     1    24    1
     3     1     2    1
     4     1     3    2
     5    25    28    1
     6    25    24    1
     7    25    26    1
     8    25    27    2
     9     6    11    1
    10     6    12    1
    11    29    36    1
    12    29    37    1
    13     7     9    1
    14     7    13    1
    15     8    10    1
    16     8    14    1
    17     4     5    1
    18    28    36    1
    19    30    33    1
    20    30    38    1
    21    31    34    1
    22    31    39    1
    23    32    35    1
    24    32    40    1
    25    41    43   ar
    26    15    19    2
    27    42    43   ar
    28    16    22    2
    29    17    12    1
    30    17    19   ar
    31    17    20   ar
    32    18    19   ar
    33    18    22   ar
    34    18    23    1
    35     9    10    1
    36     9    11    1
    37    10    12    1
    38    11     5    1
    39    33    34    1
    40    33    35    1
    41    34    36    1
    42    35    37    1
    43    37    43    1
    44    20    21   ar
    45    21    22   ar
@<TRIPOS>MOLECULE
UDP-glaA
 43 45 0 0 0
SMALL
GASTEIGER

@<TRIPOS>ATOM
      1 P          22.9658   72.0027   -2.9895 P.3     1  UNL1        0.2189
      2 O          23.6402   70.5355   -3.0890 O.3     1  UNL1       -0.4371
      3 O          22.7802   72.5206   -1.5933 O.2     1  UNL1       -0.5170
      4 O          21.6195   71.8737   -3.8762 O.3     1  UNL1       -0.3112
      5 C          20.7377   70.7948   -3.6159 C.3     1  UNL1        0.1811
      6 O          18.9193   71.9329   -4.6987 O.3     1  UNL1       -0.3308
      7 O          17.1880   70.8731   -2.4917 O.3     1  UNL1       -0.3794
      8 O          16.6349   69.1732   -4.5509 O.3     1  UNL1       -0.3779
      9 C          18.2970   70.2560   -3.1452 C.3     1  UNL1        0.1713
     10 C          17.9009   69.7997   -4.5336 C.3     1  UNL1        0.1895
     11 C          19.3259   71.3377   -3.4467 C.3     1  UNL1        0.1764
     12 C          17.9174   71.1046   -5.3115 C.3     1  UNL1        0.2383
     13 H          17.4988   71.1833   -1.6241 H       1  UNL1        0.2105
     14 H          16.6765   68.4126   -3.9461 H       1  UNL1        0.2106
     15 O          16.0387   70.5329   -7.3410 O.2     1  UNL1       -0.2464
     16 O          19.3106   70.3919  -10.5835 O.2     1  UNL1       -0.2670
     17 N          18.2504   70.9142   -6.6943 N.ar    1  UNL1       -0.2551
     18 N          17.6693   70.4625   -8.9542 N.ar    1  UNL1       -0.2743
     19 C          17.2318   70.6303   -7.6338 C.ar    1  UNL1        0.3323
     20 C          19.5746   71.0092   -7.1078 C.ar    1  UNL1        0.0869
     21 C          19.9756   70.8472   -8.3706 C.ar    1  UNL1        0.0795
     22 C          18.9746   70.5471   -9.4134 C.ar    1  UNL1        0.2626
     23 H          16.9542   70.2570   -9.6467 H       1  UNL1        0.1734
     24 O          23.9288   72.9081   -3.9212 O.3     1  UNL1       -0.2703
     25 P          24.1693   74.5060   -3.9602 P.3     1  UNL1        0.2208
     26 O          25.7790   74.6370   -4.0479 O.3     1  UNL1       -0.4371
     27 O          23.5482   75.2505   -2.8131 O.2     1  UNL1       -0.5170
     28 O          23.6424   74.9634   -5.4152 O.3     1  UNL1       -0.2858
     29 O          21.6796   76.1025   -6.0854 O.3     1  UNL1       -0.3226
     30 O          22.3041   73.4985   -9.2648 O.3     1  UNL1       -0.3794
     31 O          22.7148   72.6084   -6.5181 O.3     1  UNL1       -0.3775
     32 O          20.6264   75.6221   -8.7119 O.3     1  UNL1       -0.3792
     33 C          22.6261   74.3729   -8.1869 C.3     1  UNL1        0.1718
     34 C          22.0661   73.8260   -6.8695 C.3     1  UNL1        0.1968
     35 C          22.0319   75.7543   -8.4753 C.3     1  UNL1        0.1723
     36 C          22.2573   74.8405   -5.7352 C.3     1  UNL1        0.2706
     37 C          22.2434   76.6661   -7.2686 C.3     1  UNL1        0.1830
     38 H          22.6750   73.8845  -10.0766 H       1  UNL1        0.2105
     39 H          22.3353   72.3063   -5.6757 H       1  UNL1        0.2106
     40 H          20.1849   75.4517   -7.8627 H       1  UNL1        0.2106
     41 O          20.4011   78.0276   -6.7629 O.co2   1  UNL1       -0.5466
     42 O          21.9969   78.9071   -8.1329 O.co2   1  UNL1       -0.5466
     43 C          21.5653   77.9861   -7.4547 C.2     1  UNL1        0.0799
@<TRIPOS>UNITY_ATOM_ATTR
41 1
charge -1
@<TRIPOS>BOND
     1     1     4    1
     2     1    24    1
     3     1     2    1
     4     1     3    2
     5    25    28    1
     6    25    24    1
     7    25    26    1
     8    25    27    2
     9     6    11    1
    10     6    12    1
    11    29    36    1
    12    29    37    1
    13     7     9    1
    14     7    13    1
    15     8    10    1
    16     8    14    1
    17     4     5    1
    18    28    36    1
    19    30    33    1
    20    30    38    1
    21    31    34    1
    22    31    39    1
    23    32    35    1
    24    32    40    1
    25    41    43   ar
    26    15    19    2
    27    42    43   ar
    28    16    22    2
    29    17    12    1
    30    17    19   ar
    31    17    20   ar
    32    18    19   ar
    33    18    22   ar
    34    18    23    1
    35     9    10    1
    36     9    11    1
    37    10    12    1
    38    11     5    1
    39    33    34    1
    40    33    35    1
    41    34    36    1
    42    35    37    1
    43    37    43    1
    44    20    21   ar
    45    21    22   ar
@<TRIPOS>MOLECULE
UDP-glaA
 43 45 0 0 0
SMALL
GASTEIGER

@<TRIPOS>ATOM
      1 P          22.4402   71.5864   -2.4299 P.3     1  UNL1        0.2189
      2 O          23.4920   70.5722   -3.1244 O.3     1  UNL1       -0.4371
      3 O          22.1174   71.2800   -0.9967 O.2     1  UNL1       -0.5170
      4 O          21.1824   71.5997   -3.4463 O.3     1  UNL1       -0.3112
      5 C          20.0542   72.3925   -3.1178 C.3     1  UNL1        0.1811
      6 O          18.0289   71.5395   -4.0899 O.3     1  UNL1       -0.3308
      7 O          18.1725   69.3700   -2.0248 O.3     1  UNL1       -0.3794
      8 O          19.1248   68.1297   -4.2588 O.3     1  UNL1       -0.3779
      9 C          19.2315   70.0172   -2.7301 C.3     1  UNL1        0.1713
     10 C          19.2828   69.5302   -4.1629 C.3     1  UNL1        0.1895
     11 C          18.8532   71.4821   -2.9048 C.3     1  UNL1        0.1764
     12 C          18.1318   70.2925   -4.7969 C.3     1  UNL1        0.2383
     13 H          18.1535   69.7411   -1.1262 H       1  UNL1        0.2105
     14 H          19.8363   67.7186   -3.7382 H       1  UNL1        0.2106
     15 O          16.1518   70.0747   -6.7988 O.2     1  UNL1       -0.2464
     16 O          19.0967   71.3484  -10.1069 O.2     1  UNL1       -0.2670
     17 N          18.3532   70.5617   -6.1889 N.ar    1  UNL1       -0.2551
     18 N          17.6197   70.7086   -8.4448 N.ar    1  UNL1       -0.2743
     19 C          17.2918   70.4214   -7.1133 C.ar    1  UNL1        0.3323
     20 C          19.6116   70.9598   -6.6263 C.ar    1  UNL1        0.0869
     21 C          19.9083   71.2304   -7.8993 C.ar    1  UNL1        0.0795
     22 C          18.8563   71.1075   -8.9279 C.ar    1  UNL1        0.2626
     23 H          16.8721   70.6139   -9.1270 H       1  UNL1        0.1734
     24 O          23.1186   73.0342   -2.6728 O.3     1  UNL1       -0.2703
     25 P          23.4410   73.8385   -4.0372 P.3     1  UNL1        0.2208
     26 O          22.5444   75.1776   -3.8992 O.3     1  UNL1       -0.4371
     27 O          23.1895   73.0505   -5.2908 O.2     1  UNL1       -0.5170
     28 O          24.9628   74.3461   -3.8628 O.3     1  UNL1       -0.2858
     29 O          25.7138   75.9483   -2.2917 O.3     1  UNL1       -0.3226
     30 O          28.5510   76.2921   -5.3102 O.3     1  UNL1       -0.3794
     31 O          25.7265   75.9696   -5.9614 O.3     1  UNL1       -0.3775
     32 O          28.2242   77.2638   -2.7452 O.3     1  UNL1       -0.3792
     33 C          27.6041   75.6669   -4.4483 C.3     1  UNL1        0.1718
     34 C          26.2112   76.2707   -4.6571 C.3     1  UNL1        0.1968
     35 C          28.0490   75.8656   -2.9967 C.3     1  UNL1        0.1723
     36 C          25.2224   75.7277   -3.6179 C.3     1  UNL1        0.2706
     37 C          26.9759   75.3273   -2.0528 C.3     1  UNL1        0.1830
     38 H          29.4163   75.8815   -5.1424 H       1  UNL1        0.2105
     39 H          24.8413   76.3628   -6.0435 H       1  UNL1        0.2106
     40 H          27.3472   77.6788   -2.6834 H       1  UNL1        0.2106
     41 O          28.6482   75.5675   -0.4250 O.co2   1  UNL1       -0.5466
     42 O          26.4915   75.8678    0.2500 O.co2   1  UNL1       -0.5466
     43 C          27.3089   75.6169   -0.6237 C.2     1  UNL1        0.0799
@<TRIPOS>UNITY_ATOM_ATTR
41 1
charge -1
@<TRIPOS>BOND
     1     1     4    1
     2     1    24    1
     3     1     2    1
     4     1     3    2
     5    25    28    1
     6    25    24    1
     7    25    26    1
     8    25    27    2
     9     6    11    1
    10     6    12    1
    11    29    36    1
    12    29    37    1
    13     7     9    1
    14     7    13    1
    15     8    10    1
    16     8    14    1
    17     4     5    1
    18    28    36    1
    19    30    33    1
    20    30    38    1
    21    31    34    1
    22    31    39    1
    23    32    35    1
    24    32    40    1
    25    41    43   ar
    26    15    19    2
    27    42    43   ar
    28    16    22    2
    29    17    12    1
    30    17    19   ar
    31    17    20   ar
    32    18    19   ar
    33    18    22   ar
    34    18    23    1
    35     9    10    1
    36     9    11    1
    37    10    12    1
    38    11     5    1
    39    33    34    1
    40    33    35    1
    41    34    36    1
    42    35    37    1
    43    37    43    1
    44    20    21   ar
    45    21    22   ar
@<TRIPOS>MOLECULE
UDP-glaA
 43 45 0 0 0
SMALL
GASTEIGER

@<TRIPOS>ATOM
      1 P          22.2120   71.5715   -1.5641 P.3     1  UNL1        0.2189
      2 O          22.8189   72.5870   -2.6678 O.3     1  UNL1       -0.4371
      3 O          23.0247   70.3318   -1.3301 O.2     1  UNL1       -0.5170
      4 O          20.6885   71.3319   -2.0510 O.3     1  UNL1       -0.3112
      5 C          20.2592   71.9403   -3.2571 C.3     1  UNL1        0.1811
      6 O          18.3038   72.5426   -4.5173 O.3     1  UNL1       -0.3308
      7 O          16.7223   71.2170   -2.3418 O.3     1  UNL1       -0.3794
      8 O          16.7386   69.3238   -4.3043 O.3     1  UNL1       -0.3779
      9 C          17.9901   70.8524   -2.8872 C.3     1  UNL1        0.1713
     10 C          17.8142   70.2385   -4.2601 C.3     1  UNL1        0.1895
     11 C          18.7502   72.1331   -3.2058 C.3     1  UNL1        0.1764
     12 C          17.5746   71.4639   -5.1255 C.3     1  UNL1        0.2383
     13 H          16.8876   71.6402   -1.4820 H       1  UNL1        0.2105
     14 H          16.9171   68.6301   -3.6461 H       1  UNL1        0.2106
     15 O          16.0546   70.2951   -7.1990 O.2     1  UNL1       -0.2464
     16 O          19.4687   70.8259  -10.2488 O.2     1  UNL1       -0.2670
     17 N          18.0410   71.2847   -6.4708 N.ar    1  UNL1       -0.2551
     18 N          17.7559   70.5597   -8.7162 N.ar    1  UNL1       -0.2743
     19 C          17.1990   70.6858   -7.4367 C.ar    1  UNL1        0.3323
     20 C          19.3207   71.7004   -6.8218 C.ar    1  UNL1        0.0869
     21 C          19.8370   71.5736   -8.0462 C.ar    1  UNL1        0.0795
     22 C          19.0232   70.9575   -9.1129 C.ar    1  UNL1        0.2626
     23 H          17.1687   70.1313   -9.4267 H       1  UNL1        0.1734
     24 O          22.0332   72.5152   -0.2631 O.3     1  UNL1       -0.2703
     25 P          22.6683   73.9575    0.0959 P.3     1  UNL1        0.2208
     26 O          21.6544   74.9972   -0.6162 O.3     1  UNL1       -0.4371
     27 O          24.1055   74.1162   -0.3106 O.2     1  UNL1       -0.5170
     28 O          22.3984   74.1413    1.6762 O.3     1  UNL1       -0.2858
     29 O          23.8591   73.6126    3.4612 O.3     1  UNL1       -0.3226
     30 O          20.1238   73.1332    5.2212 O.3     1  UNL1       -0.3794
     31 O          20.6089   72.2064    2.4987 O.3     1  UNL1       -0.3775
     32 O          22.7522   73.1589    6.0703 O.3     1  UNL1       -0.3792
     33 C          21.1232   73.6774    4.3637 C.3     1  UNL1        0.1718
     34 C          21.6388   72.6063    3.3966 C.3     1  UNL1        0.1968
     35 C          22.2758   74.2078    5.2208 C.3     1  UNL1        0.1723
     36 C          22.8311   73.1328    2.5883 C.3     1  UNL1        0.2706
     37 C          23.4188   74.6656    4.3173 C.3     1  UNL1        0.1830
     38 H          19.8290   73.8437    5.8160 H       1  UNL1        0.2105
     39 H          20.9835   71.5368    1.9021 H       1  UNL1        0.2106
     40 H          23.2560   72.5277    5.5291 H       1  UNL1        0.2106
     41 O          24.2564   75.8649    6.1514 O.co2   1  UNL1       -0.5466
     42 O          25.7676   74.7348    4.8723 O.co2   1  UNL1       -0.5466
     43 C          24.6175   75.0713    5.1144 C.2     1  UNL1        0.0799
@<TRIPOS>UNITY_ATOM_ATTR
41 1
charge -1
@<TRIPOS>BOND
     1     1     4    1
     2     1    24    1
     3     1     2    1
     4     1     3    2
     5    25    28    1
     6    25    24    1
     7    25    26    1
     8    25    27    2
     9     6    11    1
    10     6    12    1
    11    29    36    1
    12    29    37    1
    13     7     9    1
    14     7    13    1
    15     8    10    1
    16     8    14    1
    17     4     5    1
    18    28    36    1
    19    30    33    1
    20    30    38    1
    21    31    34    1
    22    31    39    1
    23    32    35    1
    24    32    40    1
    25    41    43   ar
    26    15    19    2
    27    42    43   ar
    28    16    22    2
    29    17    12    1
    30    17    19   ar
    31    17    20   ar
    32    18    19   ar
    33    18    22   ar
    34    18    23    1
    35     9    10    1
    36     9    11    1
    37    10    12    1
    38    11     5    1
    39    33    34    1
    40    33    35    1
    41    34    36    1
    42    35    37    1
    43    37    43    1
    44    20    21   ar
    45    21    22   ar
@<TRIPOS>MOLECULE
UDP-glaA
 43 45 0 0 0
SMALL
GASTEIGER

@<TRIPOS>ATOM
      1 P          22.3940   73.3071   -5.2051 P.3     1  UNL1        0.2189
      2 O          22.8364   74.8007   -5.6421 O.3     1  UNL1       -0.4371
      3 O          23.4522   72.5163   -4.4931 O.2     1  UNL1       -0.5170
      4 O          21.8276   72.6529   -6.5714 O.3     1  UNL1       -0.3112
      5 C          20.9097   73.4008   -7.3508 C.3     1  UNL1        0.1811
      6 O          20.1018   71.1771   -7.7711 O.3     1  UNL1       -0.3308
      7 O          18.5856   72.3637  -10.0699 O.3     1  UNL1       -0.3794
      8 O          16.6623   72.1151   -8.1530 O.3     1  UNL1       -0.3779
      9 C          18.8655   72.9240   -8.7872 C.3     1  UNL1        0.1713
     10 C          18.0007   72.2718   -7.7292 C.3     1  UNL1        0.1895
     11 C          20.2628   72.4795   -8.3752 C.3     1  UNL1        0.1764
     12 C          18.7063   70.9428   -7.5198 C.3     1  UNL1        0.2383
     13 H          19.1887   72.7830  -10.7072 H       1  UNL1        0.2105
     14 H          16.3187   72.9988   -8.3703 H       1  UNL1        0.2106
     15 O          16.3489   69.7427   -6.5310 O.2     1  UNL1       -0.2464
     16 O          18.2192   69.0655   -2.3738 O.2     1  UNL1       -0.2670
     17 N          18.5497   70.4435   -6.1836 N.ar    1  UNL1       -0.2551
     18 N          17.2816   69.4068   -4.4614 N.ar    1  UNL1       -0.2743
     19 C          17.3242   69.8593   -5.7867 C.ar    1  UNL1        0.3323
     20 C          19.6037   70.5353   -5.2813 C.ar    1  UNL1        0.0869
     21 C          19.5477   70.0987   -4.0212 C.ar    1  UNL1        0.0795
     22 C          18.3033   69.4765   -3.5271 C.ar    1  UNL1        0.2626
     23 H          16.4101   68.9837   -4.1539 H       1  UNL1        0.1734
     24 O          21.0509   73.5650   -4.3420 O.3     1  UNL1       -0.2703
     25 P          20.8498   74.0500   -2.8133 P.3     1  UNL1        0.2208
     26 O          19.2519   74.2747   -2.7025 O.3     1  UNL1       -0.4371
     27 O          21.6722   75.2481   -2.4339 O.2     1  UNL1       -0.5170
     28 O          21.1397   72.7341   -1.9254 O.3     1  UNL1       -0.2858
     29 O          22.2028   73.2773    0.1177 O.3     1  UNL1       -0.3226
     30 O          22.2590   69.1214    0.1846 O.3     1  UNL1       -0.3794
     31 O          22.8177   70.5711   -2.2836 O.3     1  UNL1       -0.3775
     32 O          22.8512   71.1634    1.9479 O.3     1  UNL1       -0.3792
     33 C          21.7794   70.4346   -0.0905 C.3     1  UNL1        0.1718
     34 C          22.7608   71.1825   -0.9991 C.3     1  UNL1        0.1968
     35 C          21.6119   71.1878    1.2321 C.3     1  UNL1        0.1723
     36 C          22.3416   72.6490   -1.1610 C.3     1  UNL1        0.2706
     37 C          21.2353   72.6408    0.9510 C.3     1  UNL1        0.1830
     38 H          21.6093   68.6870    0.7633 H       1  UNL1        0.2105
     39 H          23.4422   71.0829   -2.8247 H       1  UNL1        0.2106
     40 H          23.4707   71.7740    1.5138 H       1  UNL1        0.2106
     41 O          20.8055   72.6772    3.2570 O.co2   1  UNL1       -0.5466
     42 O          21.4585   74.6365    2.2917 O.co2   1  UNL1       -0.5466
     43 C          21.1879   73.4472    2.2098 C.2     1  UNL1        0.0799
@<TRIPOS>UNITY_ATOM_ATTR
41 1
charge -1
@<TRIPOS>BOND
     1     1     4    1
     2     1    24    1
     3     1     2    1
     4     1     3    2
     5    25    28    1
     6    25    24    1
     7    25    26    1
     8    25    27    2
     9     6    11    1
    10     6    12    1
    11    29    36    1
    12    29    37    1
    13     7     9    1
    14     7    13    1
    15     8    10    1
    16     8    14    1
    17     4     5    1
    18    28    36    1
    19    30    33    1
    20    30    38    1
    21    31    34    1
    22    31    39    1
    23    32    35    1
    24    32    40    1
    25    41    43   ar
    26    15    19    2
    27    42    43   ar
    28    16    22    2
    29    17    12    1
    30    17    19   ar
    31    17    20   ar
    32    18    19   ar
    33    18    22   ar
    34    18    23    1
    35     9    10    1
    36     9    11    1
    37    10    12    1
    38    11     5    1
    39    33    34    1
    40    33    35    1
    41    34    36    1
    42    35    37    1
    43    37    43    1
    44    20    21   ar
    45    21    22   ar
@<TRIPOS>MOLECULE
UDP-glaA
 43 45 0 0 0
SMALL
GASTEIGER

@<TRIPOS>ATOM
      1 P          19.1797   69.8758   -3.4303 P.3     1  UNL1        0.2189
      2 O          19.4114   69.7249   -5.0244 O.3     1  UNL1       -0.4371
      3 O          18.4810   68.7179   -2.7798 O.2     1  UNL1       -0.5170
      4 O          18.4524   71.3121   -3.2765 O.3     1  UNL1       -0.3112
      5 C          17.2851   71.5655   -4.0397 C.3     1  UNL1        0.1811
      6 O          18.2254   73.1347   -5.5978 O.3     1  UNL1       -0.3308
      7 O          15.9082   74.9125   -4.9184 O.3     1  UNL1       -0.3794
      8 O          15.1486   73.8292   -7.3027 O.3     1  UNL1       -0.3779
      9 C          15.9522   73.4904   -5.0333 C.3     1  UNL1        0.1713
     10 C          16.0307   73.0834   -6.4896 C.3     1  UNL1        0.1895
     11 C          17.2969   73.0171   -4.4972 C.3     1  UNL1        0.1764
     12 C          17.4907   73.3506   -6.8139 C.3     1  UNL1        0.2383
     13 H          15.8982   75.1265   -3.9699 H       1  UNL1        0.2105
     14 H          14.2481   73.6894   -6.9626 H       1  UNL1        0.2106
     15 O          16.6650   70.6721   -7.1594 O.2     1  UNL1       -0.2464
     16 O          19.5044   70.0665  -10.7385 O.2     1  UNL1       -0.2670
     17 N          17.9970   72.4705   -7.8280 N.ar    1  UNL1       -0.2551
     18 N          18.0798   70.3721   -8.9411 N.ar    1  UNL1       -0.2743
     19 C          17.5167   71.1429   -7.9155 C.ar    1  UNL1        0.3323
     20 C          18.9594   72.9250   -8.7228 C.ar    1  UNL1        0.0869
     21 C          19.4861   72.1779   -9.6955 C.ar    1  UNL1        0.0795
     22 C          19.0394   70.7798   -9.8547 C.ar    1  UNL1        0.2626
     23 H          17.7499   69.4142   -9.0225 H       1  UNL1        0.1734
     24 O          20.6706   70.1622   -2.8730 O.3     1  UNL1       -0.2703
     25 P          21.7102   71.3580   -3.1920 P.3     1  UNL1        0.2208
     26 O          21.1447   71.9830   -4.5725 O.3     1  UNL1       -0.4371
     27 O          23.1474   70.9256   -3.2502 O.2     1  UNL1       -0.5170
     28 O          21.3965   72.4810   -2.0766 O.3     1  UNL1       -0.2858
     29 O          21.1318   71.0343   -0.2228 O.3     1  UNL1       -0.3226
     30 O          21.6008   74.7318    1.6179 O.3     1  UNL1       -0.3794
     31 O          19.9787   74.4715   -0.7919 O.3     1  UNL1       -0.3775
     32 O          21.4833   72.0919    2.4223 O.3     1  UNL1       -0.3792
     33 C          21.7799   73.7037    0.6478 C.3     1  UNL1        0.1718
     34 C          20.4455   73.3660   -0.0258 C.3     1  UNL1        0.1968
     35 C          22.3458   72.4614    1.3414 C.3     1  UNL1        0.1723
     36 C          20.5941   72.1472   -0.9449 C.3     1  UNL1        0.2706
     37 C          22.4116   71.3039    0.3474 C.3     1  UNL1        0.1830
     38 H          22.4682   74.9108    2.0193 H       1  UNL1        0.2105
     39 H          19.1394   74.2082   -1.2055 H       1  UNL1        0.2106
     40 H          20.6774   71.6936    2.0521 H       1  UNL1        0.2106
     41 O          22.4126   68.9582    0.3078 O.co2   1  UNL1       -0.5466
     42 O          23.4811   69.9675    2.0503 O.co2   1  UNL1       -0.5466
     43 C          22.8367   70.0341    1.0136 C.2     1  UNL1        0.0799
@<TRIPOS>UNITY_ATOM_ATTR
41 1
charge -1
@<TRIPOS>BOND
     1     1     4    1
     2     1    24    1
     3     1     2    1
     4     1     3    2
     5    25    28    1
     6    25    24    1
     7    25    26    1
     8    25    27    2
     9     6    11    1
    10     6    12    1
    11    29    36    1
    12    29    37    1
    13     7     9    1
    14     7    13    1
    15     8    10    1
    16     8    14    1
    17     4     5    1
    18    28    36    1
    19    30    33    1
    20    30    38    1
    21    31    34    1
    22    31    39    1
    23    32    35    1
    24    32    40    1
    25    41    43   ar
    26    15    19    2
    27    42    43   ar
    28    16    22    2
    29    17    12    1
    30    17    19   ar
    31    17    20   ar
    32    18    19   ar
    33    18    22   ar
    34    18    23    1
    35     9    10    1
    36     9    11    1
    37    10    12    1
    38    11     5    1
    39    33    34    1
    40    33    35    1
    41    34    36    1
    42    35    37    1
    43    37    43    1
    44    20    21   ar
    45    21    22   ar
@<TRIPOS>MOLECULE
UDP-glaA
 43 45 0 0 0
SMALL
GASTEIGER

@<TRIPOS>ATOM
      1 P          22.9836   74.5120   -9.0556 P.3     1  UNL1        0.2189
      2 O          21.8357   75.6518   -9.0788 O.3     1  UNL1       -0.4371
      3 O          23.4096   74.0151  -10.4061 O.2     1  UNL1       -0.5170
      4 O          22.3996   73.3913   -8.0464 O.3     1  UNL1       -0.3112
      5 C          21.0150   73.4083   -7.7432 C.3     1  UNL1        0.1811
      6 O          20.0402   71.2367   -8.0720 O.3     1  UNL1       -0.3308
      7 O          18.5641   72.4550  -10.3803 O.3     1  UNL1       -0.3794
      8 O          16.6697   72.4093   -8.4194 O.3     1  UNL1       -0.3779
      9 C          18.9112   73.0349   -9.1230 C.3     1  UNL1        0.1713
     10 C          18.0248   72.4820   -8.0270 C.3     1  UNL1        0.1895
     11 C          20.2814   72.5036   -8.7230 C.3     1  UNL1        0.1764
     12 C          18.6373   71.1127   -7.7861 C.3     1  UNL1        0.2383
     13 H          19.1819   72.8083  -11.0429 H       1  UNL1        0.2105
     14 H          16.3861   73.3081   -8.6600 H       1  UNL1        0.2106
     15 O          16.2807   69.9392   -6.7639 O.2     1  UNL1       -0.2464
     16 O          18.1243   69.4536   -2.5682 O.2     1  UNL1       -0.2670
     17 N          18.4740   70.6699   -6.4309 N.ar    1  UNL1       -0.2551
     18 N          17.2002   69.6986   -4.6752 N.ar    1  UNL1       -0.2743
     19 C          17.2495   70.0945   -6.0183 C.ar    1  UNL1        0.3323
     20 C          19.5206   70.8078   -5.5258 C.ar    1  UNL1        0.0869
     21 C          19.4581   70.4249   -4.2486 C.ar    1  UNL1        0.0795
     22 C          18.2143   69.8156   -3.7373 C.ar    1  UNL1        0.2626
     23 H          16.3292   69.2828   -4.3562 H       1  UNL1        0.1734
     24 O          24.1619   75.2021   -8.1894 O.3     1  UNL1       -0.2703
     25 P          25.3655   76.1863   -8.6313 P.3     1  UNL1        0.2208
     26 O          25.2496   77.4096   -7.5796 O.3     1  UNL1       -0.4371
     27 O          25.3226   76.6027  -10.0737 O.2     1  UNL1       -0.5170
     28 O          26.7109   75.4052   -8.2027 O.3     1  UNL1       -0.2858
     29 O          28.5088   76.0836   -6.8218 O.3     1  UNL1       -0.3226
     30 O          30.4182   73.6665   -9.6131 O.3     1  UNL1       -0.3794
     31 O          28.3212   75.5159  -10.4426 O.3     1  UNL1       -0.3775
     32 O          31.0997   74.9253   -7.2507 O.3     1  UNL1       -0.3792
     33 C          29.3822   74.1299   -8.7515 C.3     1  UNL1        0.1718
     34 C          28.9379   75.5386   -9.1596 C.3     1  UNL1        0.1968
     35 C          29.9035   74.1415   -7.3119 C.3     1  UNL1        0.1723
     36 C          27.9481   76.1131   -8.1385 C.3     1  UNL1        0.2706
     37 C          28.8578   74.7685   -6.3924 C.3     1  UNL1        0.1830
     38 H          30.6692   72.7749   -9.3169 H       1  UNL1        0.2105
     39 H          28.0490   76.4249  -10.6534 H       1  UNL1        0.2106
     40 H          30.8579   75.8642   -7.3222 H       1  UNL1        0.2106
     41 O          30.0988   73.8320   -4.6355 O.co2   1  UNL1       -0.5466
     42 O          29.1803   75.8875   -4.2774 O.co2   1  UNL1       -0.5466
     43 C          29.3755   74.9190   -4.9974 C.2     1  UNL1        0.0799
@<TRIPOS>UNITY_ATOM_ATTR
41 1
charge -1
@<TRIPOS>BOND
     1     1     4    1
     2     1    24    1
     3     1     2    1
     4     1     3    2
     5    25    28    1
     6    25    24    1
     7    25    26    1
     8    25    27    2
     9     6    11    1
    10     6    12    1
    11    29    36    1
    12    29    37    1
    13     7     9    1
    14     7    13    1
    15     8    10    1
    16     8    14    1
    17     4     5    1
    18    28    36    1
    19    30    33    1
    20    30    38    1
    21    31    34    1
    22    31    39    1
    23    32    35    1
    24    32    40    1
    25    41    43   ar
    26    15    19    2
    27    42    43   ar
    28    16    22    2
    29    17    12    1
    30    17    19   ar
    31    17    20   ar
    32    18    19   ar
    33    18    22   ar
    34    18    23    1
    35     9    10    1
    36     9    11    1
    37    10    12    1
    38    11     5    1
    39    33    34    1
    40    33    35    1
    41    34    36    1
    42    35    37    1
    43    37    43    1
    44    20    21   ar
    45    21    22   ar
@<TRIPOS>MOLECULE
UDP-glaA
 43 45 0 0 0
SMALL
GASTEIGER

@<TRIPOS>ATOM
      1 P          19.0065   70.7230   -3.3491 P.3     1  UNL1        0.2189
      2 O          18.5414   69.6479   -2.2332 O.3     1  UNL1       -0.4371
      3 O          18.4698   72.1107   -3.1534 O.2     1  UNL1       -0.5170
      4 O          18.6294   70.0150   -4.7534 O.3     1  UNL1       -0.3112
      5 C          19.1814   70.5425   -5.9477 C.3     1  UNL1        0.1811
      6 O          18.6811   72.7674   -6.7053 O.3     1  UNL1       -0.3308
      7 O          16.5471   71.5107   -8.3958 O.3     1  UNL1       -0.3794
      8 O          18.5554   71.9358  -10.1907 O.3     1  UNL1       -0.3779
      9 C          17.8415   71.0129   -8.0578 C.3     1  UNL1        0.1713
     10 C          18.9087   71.7542   -8.8351 C.3     1  UNL1        0.1895
     11 C          18.1449   71.4283   -6.6243 C.3     1  UNL1        0.1764
     12 C          18.9994   73.0661   -8.0745 C.3     1  UNL1        0.2383
     13 H          15.9010   71.0349   -7.8465 H       1  UNL1        0.2105
     14 H          18.4099   71.0546  -10.5759 H       1  UNL1        0.2106
     15 O          21.4013   71.5815   -8.0238 O.2     1  UNL1       -0.2464
     16 O          23.9770   75.3927   -8.3046 O.2     1  UNL1       -0.2670
     17 N          20.3115   73.6445   -8.1335 N.ar    1  UNL1       -0.2551
     18 N          22.6823   73.4804   -8.1631 N.ar    1  UNL1       -0.2743
     19 C          21.4534   72.8104   -8.1005 C.ar    1  UNL1        0.3323
     20 C          20.4573   75.0244   -8.2230 C.ar    1  UNL1        0.0869
     21 C          21.6360   75.6480   -8.2823 C.ar    1  UNL1        0.0795
     22 C          22.8777   74.8499   -8.2524 C.ar    1  UNL1        0.2626
     23 H          23.5170   72.9008   -8.1403 H       1  UNL1        0.1734
     24 O          20.6194   70.6127   -3.3084 O.3     1  UNL1       -0.2703
     25 P          21.7617   71.7554   -3.3517 P.3     1  UNL1        0.2208
     26 O          21.2470   72.7506   -4.5183 O.3     1  UNL1       -0.4371
     27 O          23.1531   71.2280   -3.5559 O.2     1  UNL1       -0.5170
     28 O          21.5585   72.5887   -1.9849 O.3     1  UNL1       -0.2858
     29 O          21.2832   70.9802   -0.2713 O.3     1  UNL1       -0.3226
     30 O          21.1324   74.5501    1.8528 O.3     1  UNL1       -0.3794
     31 O          19.7977   74.3046   -0.7286 O.3     1  UNL1       -0.3775
     32 O          21.2459   71.8581    2.4612 O.3     1  UNL1       -0.3792
     33 C          21.5255   73.6275    0.8407 C.3     1  UNL1        0.1718
     34 C          20.3128   73.1999    0.0071 C.3     1  UNL1        0.1968
     35 C          22.1616   72.4039    1.5059 C.3     1  UNL1        0.1723
     36 C          20.6929   72.0809   -0.9705 C.3     1  UNL1        0.2706
     37 C          22.4601   71.3424    0.4493 C.3     1  UNL1        0.1830
     38 H          21.9291   74.7908    2.3558 H       1  UNL1        0.2105
     39 H          19.0399   73.9844   -1.2464 H       1  UNL1        0.2106
     40 H          20.5326   71.4044    1.9810 H       1  UNL1        0.2106
     41 O          22.7094   69.0168    0.2677 O.co2   1  UNL1       -0.5466
     42 O          23.5292   70.0048    2.1515 O.co2   1  UNL1       -0.5466
     43 C          22.9632   70.0783    1.0705 C.2     1  UNL1        0.0799
@<TRIPOS>UNITY_ATOM_ATTR
41 1
charge -1
@<TRIPOS>BOND
     1     1     4    1
     2     1    24    1
     3     1     2    1
     4     1     3    2
     5    25    28    1
     6    25    24    1
     7    25    26    1
     8    25    27    2
     9     6    11    1
    10     6    12    1
    11    29    36    1
    12    29    37    1
    13     7     9    1
    14     7    13    1
    15     8    10    1
    16     8    14    1
    17     4     5    1
    18    28    36    1
    19    30    33    1
    20    30    38    1
    21    31    34    1
    22    31    39    1
    23    32    35    1
    24    32    40    1
    25    41    43   ar
    26    15    19    2
    27    42    43   ar
    28    16    22    2
    29    17    12    1
    30    17    19   ar
    31    17    20   ar
    32    18    19   ar
    33    18    22   ar
    34    18    23    1
    35     9    10    1
    36     9    11    1
    37    10    12    1
    38    11     5    1
    39    33    34    1
    40    33    35    1
    41    34    36    1
    42    35    37    1
    43    37    43    1
    44    20    21   ar
    45    21    22   ar
@<TRIPOS>MOLECULE
UDP-glaA
 43 45 0 0 0
SMALL
GASTEIGER

@<TRIPOS>ATOM
      1 P          21.6297   73.1844   -5.9817 P.3     1  UNL1        0.2189
      2 O          21.4977   74.7183   -5.4846 O.3     1  UNL1       -0.4371
      3 O          22.7691   72.9195   -6.9218 O.2     1  UNL1       -0.5170
      4 O          20.1561   72.8292   -6.5455 O.3     1  UNL1       -0.3112
      5 C          19.3892   71.8492   -5.8668 C.3     1  UNL1        0.1811
      6 O          17.2753   71.6660   -6.9947 O.3     1  UNL1       -0.3308
      7 O          18.7041   69.9518   -8.9975 O.3     1  UNL1       -0.3794
      8 O          18.5591   72.3592  -10.2699 O.3     1  UNL1       -0.3779
      9 C          19.1773   71.0958   -8.2869 C.3     1  UNL1        0.1713
     10 C          18.5661   72.3582   -8.8573 C.3     1  UNL1        0.1895
     11 C          18.5814   71.0582   -6.8858 C.3     1  UNL1        0.1764
     12 C          17.1669   72.3265   -8.2665 C.3     1  UNL1        0.2383
     13 H          19.0906   69.1668   -8.5732 H       1  UNL1        0.2105
     14 H          19.4808   72.2678  -10.5672 H       1  UNL1        0.2106
     15 O          18.6104   74.7220   -8.6579 O.2     1  UNL1       -0.2464
     16 O          14.9912   77.3129   -7.4635 O.2     1  UNL1       -0.2670
     17 N          16.6266   73.6407   -8.0658 N.ar    1  UNL1       -0.2551
     18 N          16.8074   76.0105   -8.0624 N.ar    1  UNL1       -0.2743
     19 C          17.4359   74.7790   -8.2893 C.ar    1  UNL1        0.3323
     20 C          15.3079   73.7922   -7.6516 C.ar    1  UNL1        0.0869
     21 C          14.7230   74.9733   -7.4401 C.ar    1  UNL1        0.0795
     22 C          15.4992   76.2115   -7.6498 C.ar    1  UNL1        0.2626
     23 H          17.3704   76.8427   -8.2162 H       1  UNL1        0.1734
     24 O          21.6962   72.3580   -4.5932 O.3     1  UNL1       -0.2703
     25 P          22.8982   72.1670   -3.5296 P.3     1  UNL1        0.2208
     26 O          24.0979   73.0473   -4.1634 O.3     1  UNL1       -0.4371
     27 O          23.2575   70.7344   -3.2569 O.2     1  UNL1       -0.5170
     28 O          22.4275   72.9957   -2.2274 O.3     1  UNL1       -0.2858
     29 O          21.5023   71.3744   -0.7731 O.3     1  UNL1       -0.3226
     30 O          21.2829   74.8318    1.5243 O.3     1  UNL1       -0.3794
     31 O          20.6465   74.9008   -1.3211 O.3     1  UNL1       -0.3775
     32 O          20.8722   72.1296    1.9235 O.3     1  UNL1       -0.3792
     33 C          21.7988   73.9050    0.5729 C.3     1  UNL1        0.1718
     34 C          20.7993   73.7007   -0.5705 C.3     1  UNL1        0.1968
     35 C          22.0697   72.5723    1.2764 C.3     1  UNL1        0.1723
     36 C          21.2675   72.5804   -1.5076 C.3     1  UNL1        0.2706
     37 C          22.4882   71.5245    0.2472 C.3     1  UNL1        0.1830
     38 H          21.9457   74.9282    2.2292 H       1  UNL1        0.2105
     39 H          20.0140   74.7206   -2.0368 H       1  UNL1        0.2106
     40 H          20.2545   71.8092    1.2445 H       1  UNL1        0.2106
     41 O          21.6377   69.3501    0.4754 O.co2   1  UNL1       -0.5466
     42 O          23.5377   69.8483    1.6324 O.co2   1  UNL1       -0.5466
     43 C          22.6380   70.1736    0.8714 C.2     1  UNL1        0.0799
@<TRIPOS>UNITY_ATOM_ATTR
41 1
charge -1
@<TRIPOS>BOND
     1     1     4    1
     2     1    24    1
     3     1     2    1
     4     1     3    2
     5    25    28    1
     6    25    24    1
     7    25    26    1
     8    25    27    2
     9     6    11    1
    10     6    12    1
    11    29    36    1
    12    29    37    1
    13     7     9    1
    14     7    13    1
    15     8    10    1
    16     8    14    1
    17     4     5    1
    18    28    36    1
    19    30    33    1
    20    30    38    1
    21    31    34    1
    22    31    39    1
    23    32    35    1
    24    32    40    1
    25    41    43   ar
    26    15    19    2
    27    42    43   ar
    28    16    22    2
    29    17    12    1
    30    17    19   ar
    31    17    20   ar
    32    18    19   ar
    33    18    22   ar
    34    18    23    1
    35     9    10    1
    36     9    11    1
    37    10    12    1
    38    11     5    1
    39    33    34    1
    40    33    35    1
    41    34    36    1
    42    35    37    1
    43    37    43    1
    44    20    21   ar
    45    21    22   ar
@<TRIPOS>MOLECULE
UDP-glaA
 43 45 0 0 0
SMALL
GASTEIGER

@<TRIPOS>ATOM
      1 P          23.3610   74.3060   -3.9939 P.3     1  UNL1        0.2189
      2 O          23.8188   72.7697   -3.7754 O.3     1  UNL1       -0.4371
      3 O          24.3985   75.1930   -4.6176 O.2     1  UNL1       -0.5170
      4 O          22.8277   74.7645   -2.5376 O.3     1  UNL1       -0.3112
      5 C          23.6276   75.6485   -1.7707 C.3     1  UNL1        0.1811
      6 O          21.9833   74.9800   -0.1508 O.3     1  UNL1       -0.3308
      7 O          23.0387   77.2036    1.5618 O.3     1  UNL1       -0.3794
      8 O          24.2181   75.0004    2.6529 O.3     1  UNL1       -0.3779
      9 C          23.7431   76.3335    0.6761 C.3     1  UNL1        0.1713
     10 C          23.8679   74.9529    1.2852 C.3     1  UNL1        0.1895
     11 C          22.8520   76.0700   -0.5307 C.3     1  UNL1        0.1764
     12 C          22.4792   74.3806    1.0575 C.3     1  UNL1        0.2383
     13 H          22.9491   78.0622    1.1142 H       1  UNL1        0.2105
     14 H          25.0637   75.4762    2.7222 H       1  UNL1        0.2106
     15 O          22.4299   72.5382    3.1973 O.2     1  UNL1       -0.2464
     16 O          22.5383   68.9295    0.3331 O.2     1  UNL1       -0.2670
     17 N          22.4931   72.9543    0.8999 N.ar    1  UNL1       -0.2551
     18 N          22.4844   70.7425    1.7696 N.ar    1  UNL1       -0.2743
     19 C          22.4668   72.1172    2.0397 C.ar    1  UNL1        0.3323
     20 C          22.5327   72.3981   -0.3739 C.ar    1  UNL1        0.0869
     21 C          22.5485   71.0853   -0.6149 C.ar    1  UNL1        0.0795
     22 C          22.5240   70.1422    0.5207 C.ar    1  UNL1        0.2626
     23 H          22.4667   70.1215    2.5741 H       1  UNL1        0.1734
     24 O          21.9972   74.1594   -4.8504 O.3     1  UNL1       -0.2703
     25 P          21.7566   73.9845   -6.4391 P.3     1  UNL1        0.2208
     26 O          22.7811   72.7992   -6.8414 O.3     1  UNL1       -0.4371
     27 O          21.9296   75.2488   -7.2312 O.2     1  UNL1       -0.5170
     28 O          20.2923   73.3172   -6.5600 O.3     1  UNL1       -0.2858
     29 O          19.0880   71.2811   -6.6176 O.3     1  UNL1       -0.3226
     30 O          18.2442   72.8981  -10.3529 O.3     1  UNL1       -0.3794
     31 O          20.9321   73.0748   -9.2348 O.3     1  UNL1       -0.3775
     32 O          17.3665   70.7515   -8.8524 O.3     1  UNL1       -0.3792
     33 C          18.5266   72.8676   -8.9566 C.3     1  UNL1        0.1718
     34 C          19.9040   72.2456   -8.7033 C.3     1  UNL1        0.1968
     35 C          17.4436   72.0477   -8.2501 C.3     1  UNL1        0.1723
     36 C          20.1443   72.0510   -7.2011 C.3     1  UNL1        0.2706
     37 C          17.8044   71.8836   -6.7753 C.3     1  UNL1        0.1830
     38 H          17.3642   73.2962  -10.4656 H       1  UNL1        0.2105
     39 H          21.7832   72.6464   -9.0427 H       1  UNL1        0.2106
     40 H          18.1411   70.2346   -8.5733 H       1  UNL1        0.2106
     41 O          16.2735   71.6128   -5.0183 O.co2   1  UNL1       -0.5466
     42 O          16.5917   69.8293   -6.4021 O.co2   1  UNL1       -0.5466
     43 C          16.8409   70.9801   -6.0735 C.2     1  UNL1        0.0799
@<TRIPOS>UNITY_ATOM_ATTR
41 1
charge -1
@<TRIPOS>BOND
     1     1     4    1
     2     1    24    1
     3     1     2    1
     4     1     3    2
     5    25    28    1
     6    25    24    1
     7    25    26    1
     8    25    27    2
     9     6    11    1
    10     6    12    1
    11    29    36    1
    12    29    37    1
    13     7     9    1
    14     7    13    1
    15     8    10    1
    16     8    14    1
    17     4     5    1
    18    28    36    1
    19    30    33    1
    20    30    38    1
    21    31    34    1
    22    31    39    1
    23    32    35    1
    24    32    40    1
    25    41    43   ar
    26    15    19    2
    27    42    43   ar
    28    16    22    2
    29    17    12    1
    30    17    19   ar
    31    17    20   ar
    32    18    19   ar
    33    18    22   ar
    34    18    23    1
    35     9    10    1
    36     9    11    1
    37    10    12    1
    38    11     5    1
    39    33    34    1
    40    33    35    1
    41    34    36    1
    42    35    37    1
    43    37    43    1
    44    20    21   ar
    45    21    22   ar
@<TRIPOS>MOLECULE
UDP-glaA
 43 45 0 0 0
SMALL
GASTEIGER

@<TRIPOS>ATOM
      1 P          21.6580   73.4449   -5.6031 P.3     1  UNL1        0.2189
      2 O          21.1022   74.9117   -5.9993 O.3     1  UNL1       -0.4371
      3 O          22.7877   72.9446   -6.4550 O.2     1  UNL1       -0.5170
      4 O          20.3322   72.5191   -5.5793 O.3     1  UNL1       -0.3112
      5 C          20.4158   71.2309   -4.9938 C.3     1  UNL1        0.1811
      6 O          18.2999   72.0540   -4.2068 O.3     1  UNL1       -0.3308
      7 O          18.1410   69.5428   -2.5760 O.3     1  UNL1       -0.3794
      8 O          16.5194   68.9803   -4.6949 O.3     1  UNL1       -0.3779
      9 C          18.6818   69.7385   -3.8825 C.3     1  UNL1        0.1713
     10 C          17.5665   69.9077   -4.8925 C.3     1  UNL1        0.1895
     11 C          19.3504   71.1066   -3.9139 C.3     1  UNL1        0.1764
     12 C          17.1309   71.3419   -4.6447 C.3     1  UNL1        0.2383
     13 H          18.8899   69.4788   -1.9590 H       1  UNL1        0.2105
     14 H          16.9017   68.0885   -4.7623 H       1  UNL1        0.2106
     15 O          17.6829   70.4821   -7.2775 O.2     1  UNL1       -0.2464
     16 O          15.1036   73.8339   -9.1082 O.2     1  UNL1       -0.2670
     17 N          16.6166   71.9708   -5.8276 N.ar    1  UNL1       -0.2551
     18 N          16.3986   72.1521   -8.1874 N.ar    1  UNL1       -0.2743
     19 C          16.9551   71.4611   -7.1029 C.ar    1  UNL1        0.3323
     20 C          15.7862   73.0806   -5.7173 C.ar    1  UNL1        0.0869
     21 C          15.2632   73.7281   -6.7609 C.ar    1  UNL1        0.0795
     22 C          15.5681   73.2604   -8.1277 C.ar    1  UNL1        0.2626
     23 H          16.6289   71.8037   -9.1140 H       1  UNL1        0.1734
     24 O          22.0172   73.6050   -4.0345 O.3     1  UNL1       -0.2703
     25 P          23.3477   74.1589   -3.3026 P.3     1  UNL1        0.2208
     26 O          23.0913   75.7540   -3.2243 O.3     1  UNL1       -0.4371
     27 O          24.6305   73.7697   -3.9797 O.2     1  UNL1       -0.5170
     28 O          23.2176   73.6490   -1.7771 O.3     1  UNL1       -0.2858
     29 O          21.5108   72.2072   -0.9979 O.3     1  UNL1       -0.3226
     30 O          22.6663   74.1532    2.4888 O.3     1  UNL1       -0.3794
     31 O          22.4245   75.6237   -0.0181 O.3     1  UNL1       -0.3775
     32 O          21.0263   72.0317    1.8258 O.3     1  UNL1       -0.3792
     33 C          22.7944   73.5547    1.2021 C.3     1  UNL1        0.1718
     34 C          21.9340   74.3016    0.1773 C.3     1  UNL1        0.1968
     35 C          22.3524   72.0914    1.2902 C.3     1  UNL1        0.1723
     36 C          21.9299   73.5652   -1.1682 C.3     1  UNL1        0.2706
     37 C          22.3469   71.4720   -0.1056 C.3     1  UNL1        0.1830
     38 H          23.2244   73.6479    3.1043 H       1  UNL1        0.2105
     39 H          21.8560   76.0528   -0.6796 H       1  UNL1        0.2106
     40 H          20.4029   72.3278    1.1409 H       1  UNL1        0.2106
     41 O          20.8856   69.9121   -1.0725 O.co2   1  UNL1       -0.5466
     42 O          22.1235   69.2098    0.7083 O.co2   1  UNL1       -0.5466
     43 C          21.7975   70.0811   -0.0849 C.2     1  UNL1        0.0799
@<TRIPOS>UNITY_ATOM_ATTR
41 1
charge -1
@<TRIPOS>BOND
     1     1     4    1
     2     1    24    1
     3     1     2    1
     4     1     3    2
     5    25    28    1
     6    25    24    1
     7    25    26    1
     8    25    27    2
     9     6    11    1
    10     6    12    1
    11    29    36    1
    12    29    37    1
    13     7     9    1
    14     7    13    1
    15     8    10    1
    16     8    14    1
    17     4     5    1
    18    28    36    1
    19    30    33    1
    20    30    38    1
    21    31    34    1
    22    31    39    1
    23    32    35    1
    24    32    40    1
    25    41    43   ar
    26    15    19    2
    27    42    43   ar
    28    16    22    2
    29    17    12    1
    30    17    19   ar
    31    17    20   ar
    32    18    19   ar
    33    18    22   ar
    34    18    23    1
    35     9    10    1
    36     9    11    1
    37    10    12    1
    38    11     5    1
    39    33    34    1
    40    33    35    1
    41    34    36    1
    42    35    37    1
    43    37    43    1
    44    20    21   ar
    45    21    22   ar
@<TRIPOS>MOLECULE
UDP-glaA
 43 45 0 0 0
SMALL
GASTEIGER

@<TRIPOS>ATOM
      1 P          19.1747   70.6198   -3.0228 P.3     1  UNL1        0.2189
      2 O          19.1835   69.2427   -2.1737 O.3     1  UNL1       -0.4371
      3 O          18.7269   71.8314   -2.2589 O.2     1  UNL1       -0.5170
      4 O          18.3088   70.2598   -4.3404 O.3     1  UNL1       -0.3112
      5 C          18.8811   70.5022   -5.6143 C.3     1  UNL1        0.1811
      6 O          18.4215   72.5756   -6.7385 O.3     1  UNL1       -0.3308
      7 O          16.3685   71.0539   -8.3074 O.3     1  UNL1       -0.3794
      8 O          18.4611   71.2005  -10.0496 O.3     1  UNL1       -0.3779
      9 C          17.6445   70.6237   -7.8335 C.3     1  UNL1        0.1713
     10 C          18.7489   71.2385   -8.6671 C.3     1  UNL1        0.1895
     11 C          17.8797   71.2632   -6.4714 C.3     1  UNL1        0.1764
     12 C          18.8054   72.6550   -8.1211 C.3     1  UNL1        0.2383
     13 H          15.6962   70.6675   -7.7207 H       1  UNL1        0.2105
     14 H          18.3327   70.2684  -10.2964 H       1  UNL1        0.2106
     15 O          21.1969   71.1531   -8.1390 O.2     1  UNL1       -0.2464
     16 O          23.7926   74.9476   -8.4596 O.2     1  UNL1       -0.2670
     17 N          20.1197   73.2244   -8.2090 N.ar    1  UNL1       -0.2551
     18 N          22.4879   73.0436   -8.2981 N.ar    1  UNL1       -0.2743
     19 C          21.2560   72.3820   -8.2094 C.ar    1  UNL1        0.3323
     20 C          20.2734   74.6038   -8.2934 C.ar    1  UNL1        0.0869
     21 C          21.4548   75.2194   -8.3779 C.ar    1  UNL1        0.0795
     22 C          22.6910   74.4123   -8.3836 C.ar    1  UNL1        0.2626
     23 H          23.3187   72.4580   -8.2995 H       1  UNL1        0.1734
     24 O          20.6857   70.7035   -3.5930 O.3     1  UNL1       -0.2703
     25 P          22.0172   71.3780   -2.9726 P.3     1  UNL1        0.2208
     26 O          21.9745   72.8866   -3.5545 O.3     1  UNL1       -0.4371
     27 O          23.2846   70.6318   -3.2768 O.2     1  UNL1       -0.5170
     28 O          21.6992   71.5382   -1.3987 O.3     1  UNL1       -0.2858
     29 O          23.3810   72.8356   -0.3559 O.3     1  UNL1       -0.3226
     30 O          21.0012   71.7384    2.8709 O.3     1  UNL1       -0.3794
     31 O          21.6125   69.8201    0.7608 O.3     1  UNL1       -0.3775
     32 O          23.1285   73.4462    2.4373 O.3     1  UNL1       -0.3792
     33 C          21.3322   72.1068    1.5348 C.3     1  UNL1        0.1718
     34 C          22.2750   71.0711    0.9129 C.3     1  UNL1        0.1968
     35 C          22.0039   73.4827    1.5525 C.3     1  UNL1        0.1723
     36 C          22.7726   71.5440   -0.4587 C.3     1  UNL1        0.2706
     37 C          22.4940   73.8325    0.1491 C.3     1  UNL1        0.1830
     38 H          20.4066   72.4216    3.2248 H       1  UNL1        0.2105
     39 H          22.2435   69.2013    0.3561 H       1  UNL1        0.2106
     40 H          23.8426   72.9447    2.0087 H       1  UNL1        0.2106
     41 O          24.3100   75.0348   -0.7229 O.co2   1  UNL1       -0.5466
     42 O          23.0100   76.0932    0.8219 O.co2   1  UNL1       -0.5466
     43 C          23.2713   75.1103    0.1436 C.2     1  UNL1        0.0799
@<TRIPOS>UNITY_ATOM_ATTR
41 1
charge -1
@<TRIPOS>BOND
     1     1     4    1
     2     1    24    1
     3     1     2    1
     4     1     3    2
     5    25    28    1
     6    25    24    1
     7    25    26    1
     8    25    27    2
     9     6    11    1
    10     6    12    1
    11    29    36    1
    12    29    37    1
    13     7     9    1
    14     7    13    1
    15     8    10    1
    16     8    14    1
    17     4     5    1
    18    28    36    1
    19    30    33    1
    20    30    38    1
    21    31    34    1
    22    31    39    1
    23    32    35    1
    24    32    40    1
    25    41    43   ar
    26    15    19    2
    27    42    43   ar
    28    16    22    2
    29    17    12    1
    30    17    19   ar
    31    17    20   ar
    32    18    19   ar
    33    18    22   ar
    34    18    23    1
    35     9    10    1
    36     9    11    1
    37    10    12    1
    38    11     5    1
    39    33    34    1
    40    33    35    1
    41    34    36    1
    42    35    37    1
    43    37    43    1
    44    20    21   ar
    45    21    22   ar
@<TRIPOS>MOLECULE
UDP-glaA
 43 45 0 0 0
SMALL
GASTEIGER

@<TRIPOS>ATOM
      1 P          18.8096   69.7470   -3.7666 P.3     1  UNL1        0.2189
      2 O          19.1272   68.1662   -3.6335 O.3     1  UNL1       -0.4371
      3 O          17.8285   70.2820   -2.7651 O.2     1  UNL1       -0.5170
      4 O          18.4002   69.9327   -5.3202 O.3     1  UNL1       -0.3112
      5 C          17.2710   70.7306   -5.6324 C.3     1  UNL1        0.1811
      6 O          16.0346   71.6698   -7.4664 O.3     1  UNL1       -0.3308
      7 O          18.0726   70.3869   -9.2531 O.3     1  UNL1       -0.3794
      8 O          18.8931   72.9865   -9.1843 O.3     1  UNL1       -0.3779
      9 C          18.2460   70.9834   -7.9679 C.3     1  UNL1        0.1713
     10 C          18.1720   72.4920   -8.0748 C.3     1  UNL1        0.1895
     11 C          17.0145   70.6625   -7.1311 C.3     1  UNL1        0.1764
     12 C          16.6762   72.7268   -8.1987 C.3     1  UNL1        0.2383
     13 H          18.0881   69.4225   -9.1295 H       1  UNL1        0.2105
     14 H          19.8176   72.7014   -9.0832 H       1  UNL1        0.2106
     15 O          14.2786   74.0630   -8.8631 O.2     1  UNL1       -0.2464
     16 O          15.2299   77.5665   -6.0242 O.2     1  UNL1       -0.2670
     17 N          16.2720   73.9888   -7.6481 N.ar    1  UNL1       -0.2551
     18 N          14.7541   75.8070   -7.4494 N.ar    1  UNL1       -0.2743
     19 C          15.0489   74.5754   -8.0490 C.ar    1  UNL1        0.3323
     20 C          17.0842   74.6327   -6.7212 C.ar    1  UNL1        0.0869
     21 C          16.7889   75.8065   -6.1582 C.ar    1  UNL1        0.0795
     22 C          15.5303   76.4863   -6.5232 C.ar    1  UNL1        0.2626
     23 H          13.8800   76.2475   -7.7231 H       1  UNL1        0.1734
     24 O          20.2788   70.4190   -3.6955 O.3     1  UNL1       -0.2703
     25 P          20.7432   71.9646   -3.7852 P.3     1  UNL1        0.2208
     26 O          19.3470   72.7620   -3.9607 O.3     1  UNL1       -0.4371
     27 O          21.7551   72.2423   -4.8598 O.2     1  UNL1       -0.5170
     28 O          21.2377   72.3302   -2.2933 O.3     1  UNL1       -0.2858
     29 O          21.0160   70.9067   -0.4161 O.3     1  UNL1       -0.3226
     30 O          21.2150   74.6613    1.3566 O.3     1  UNL1       -0.3794
     31 O          19.6709   74.2551   -1.0840 O.3     1  UNL1       -0.3775
     32 O          21.2382   72.0354    2.2136 O.3     1  UNL1       -0.3792
     33 C          21.4797   73.6272    0.4128 C.3     1  UNL1        0.1718
     34 C          20.1851   73.1955   -0.2842 C.3     1  UNL1        0.1968
     35 C          22.1028   72.4357    1.1453 C.3     1  UNL1        0.1723
     36 C          20.4296   71.9702   -1.1737 C.3     1  UNL1        0.2706
     37 C          22.2628   71.2651    0.1778 C.3     1  UNL1        0.1830
     38 H          22.0599   74.9008    1.7741 H       1  UNL1        0.2105
     39 H          18.8594   73.9330   -1.5113 H       1  UNL1        0.2106
     40 H          20.4672   71.5815    1.8333 H       1  UNL1        0.2106
     41 O          22.3633   68.9215    0.2143 O.co2   1  UNL1       -0.5466
     42 O          23.4042   70.0318    1.9116 O.co2   1  UNL1       -0.5466
     43 C          22.7479   70.0370    0.8802 C.2     1  UNL1        0.0799
@<TRIPOS>UNITY_ATOM_ATTR
41 1
charge -1
@<TRIPOS>BOND
     1     1     4    1
     2     1    24    1
     3     1     2    1
     4     1     3    2
     5    25    28    1
     6    25    24    1
     7    25    26    1
     8    25    27    2
     9     6    11    1
    10     6    12    1
    11    29    36    1
    12    29    37    1
    13     7     9    1
    14     7    13    1
    15     8    10    1
    16     8    14    1
    17     4     5    1
    18    28    36    1
    19    30    33    1
    20    30    38    1
    21    31    34    1
    22    31    39    1
    23    32    35    1
    24    32    40    1
    25    41    43   ar
    26    15    19    2
    27    42    43   ar
    28    16    22    2
    29    17    12    1
    30    17    19   ar
    31    17    20   ar
    32    18    19   ar
    33    18    22   ar
    34    18    23    1
    35     9    10    1
    36     9    11    1
    37    10    12    1
    38    11     5    1
    39    33    34    1
    40    33    35    1
    41    34    36    1
    42    35    37    1
    43    37    43    1
    44    20    21   ar
    45    21    22   ar
@<TRIPOS>MOLECULE
UDP-glaA
 43 45 0 0 0
SMALL
GASTEIGER

@<TRIPOS>ATOM
      1 P          17.3402   70.1044   -4.6303 P.3     1  UNL1        0.2189
      2 O          17.7326   69.5207   -3.1734 O.3     1  UNL1       -0.4371
      3 O          16.6068   69.1441   -5.5203 O.2     1  UNL1       -0.5170
      4 O          18.7379   70.6739   -5.2114 O.3     1  UNL1       -0.3112
      5 C          18.8556   70.8835   -6.6083 C.3     1  UNL1        0.1811
      6 O          18.8251   73.2628   -6.9431 O.3     1  UNL1       -0.3308
      7 O          16.3187   72.8195   -8.5282 O.3     1  UNL1       -0.3794
      8 O          18.2079   73.1170  -10.4720 O.3     1  UNL1       -0.3779
      9 C          17.4854   72.0022   -8.4359 C.3     1  UNL1        0.1713
     10 C          18.6249   72.6233   -9.2159 C.3     1  UNL1        0.1895
     11 C          18.0002   72.0784   -7.0045 C.3     1  UNL1        0.1764
     12 C          19.0848   73.7267   -8.2782 C.3     1  UNL1        0.2383
     13 H          15.6294   72.4033   -7.9831 H       1  UNL1        0.2105
     14 H          17.8279   72.3715  -10.9680 H       1  UNL1        0.2106
     15 O          21.1006   71.7571   -8.4597 O.2     1  UNL1       -0.2464
     16 O          24.4273   74.9304   -8.7799 O.2     1  UNL1       -0.2670
     17 N          20.4854   74.0098   -8.4102 N.ar    1  UNL1       -0.2551
     18 N          22.7559   73.3386   -8.6185 N.ar    1  UNL1       -0.2743
     19 C          21.4162   72.9479   -8.4926 C.ar    1  UNL1        0.3323
     20 C          20.9247   75.3283   -8.4567 C.ar    1  UNL1        0.0869
     21 C          22.2054   75.6844   -8.5776 C.ar    1  UNL1        0.0795
     22 C          23.2411   74.6362   -8.6688 C.ar    1  UNL1        0.2626
     23 H          23.4428   72.5918   -8.6788 H       1  UNL1        0.1734
     24 O          16.5201   71.4513   -4.2721 O.3     1  UNL1       -0.2703
     25 P          16.6863   72.5018   -3.0549 P.3     1  UNL1        0.2208
     26 O          16.4188   71.5946   -1.7428 O.3     1  UNL1       -0.4371
     27 O          15.8044   73.7128   -3.1617 O.2     1  UNL1       -0.5170
     28 O          18.2658   72.8291   -3.0101 O.3     1  UNL1       -0.2858
     29 O          20.0348   71.6091   -2.0193 O.3     1  UNL1       -0.3226
     30 O          21.3550   75.5312   -1.6271 O.3     1  UNL1       -0.3794
     31 O          18.5568   74.8558   -1.1579 O.3     1  UNL1       -0.3775
     32 O          22.4101   73.0105   -1.2238 O.3     1  UNL1       -0.3792
     33 C          20.7018   74.4061   -2.2082 C.3     1  UNL1        0.1718
     34 C          19.5967   73.8912   -1.2798 C.3     1  UNL1        0.1968
     35 C          21.7366   73.3042   -2.4522 C.3     1  UNL1        0.1723
     36 C          19.0044   72.5814   -1.8146 C.3     1  UNL1        0.2706
     37 C          21.0342   72.0398   -2.9420 C.3     1  UNL1        0.1830
     38 H          22.0463   75.8213   -2.2463 H       1  UNL1        0.2105
     39 H          17.8780   74.4828   -0.5705 H       1  UNL1        0.2106
     40 H          21.8036   72.5118   -0.6506 H       1  UNL1        0.2106
     41 O          23.2100   71.3357   -3.4653 O.co2   1  UNL1       -0.5466
     42 O          21.7186   69.7263   -2.8471 O.co2   1  UNL1       -0.5466
     43 C          21.9906   70.8971   -3.0699 C.2     1  UNL1        0.0799
@<TRIPOS>UNITY_ATOM_ATTR
41 1
charge -1
@<TRIPOS>BOND
     1     1     4    1
     2     1    24    1
     3     1     2    1
     4     1     3    2
     5    25    28    1
     6    25    24    1
     7    25    26    1
     8    25    27    2
     9     6    11    1
    10     6    12    1
    11    29    36    1
    12    29    37    1
    13     7     9    1
    14     7    13    1
    15     8    10    1
    16     8    14    1
    17     4     5    1
    18    28    36    1
    19    30    33    1
    20    30    38    1
    21    31    34    1
    22    31    39    1
    23    32    35    1
    24    32    40    1
    25    41    43   ar
    26    15    19    2
    27    42    43   ar
    28    16    22    2
    29    17    12    1
    30    17    19   ar
    31    17    20   ar
    32    18    19   ar
    33    18    22   ar
    34    18    23    1
    35     9    10    1
    36     9    11    1
    37    10    12    1
    38    11     5    1
    39    33    34    1
    40    33    35    1
    41    34    36    1
    42    35    37    1
    43    37    43    1
    44    20    21   ar
    45    21    22   ar
@<TRIPOS>MOLECULE
UDP-glaA
 43 45 0 0 0
SMALL
GASTEIGER

@<TRIPOS>ATOM
      1 P          21.3935   72.8370   -5.1657 P.3     1  UNL1        0.2189
      2 O          22.7704   72.8017   -6.0145 O.3     1  UNL1       -0.4371
      3 O          21.0483   71.5550   -4.4660 O.2     1  UNL1       -0.5170
      4 O          20.2968   73.3773   -6.2243 O.3     1  UNL1       -0.3112
      5 C          20.6920   73.5657   -7.5725 C.3     1  UNL1        0.1811
      6 O          19.4645   71.4999   -7.5729 O.3     1  UNL1       -0.3308
      7 O          18.6206   72.2186  -10.3590 O.3     1  UNL1       -0.3794
      8 O          16.4296   72.8905   -8.8812 O.3     1  UNL1       -0.3779
      9 C          18.8289   73.0681   -9.2310 C.3     1  UNL1        0.1713
     10 C          17.6901   72.9197   -8.2442 C.3     1  UNL1        0.1895
     11 C          20.0091   72.5185   -8.4407 C.3     1  UNL1        0.1764
     12 C          18.0312   71.6048   -7.5639 C.3     1  UNL1        0.2383
     13 H          19.3916   72.3180  -10.9431 H       1  UNL1        0.2105
     14 H          16.3352   73.7194   -9.3814 H       1  UNL1        0.2106
     15 O          16.9810   73.8134   -6.1517 O.2     1  UNL1       -0.2464
     16 O          16.2846   71.2899   -2.3588 O.2     1  UNL1       -0.2670
     17 N          17.5675   71.5533   -6.2068 N.ar    1  UNL1       -0.2551
     18 N          16.6354   72.5555   -4.2638 N.ar    1  UNL1       -0.2743
     19 C          17.0589   72.7197   -5.5892 C.ar    1  UNL1        0.3323
     20 C          17.6196   70.3561   -5.5016 C.ar    1  UNL1        0.0869
     21 C          17.2114   70.2156   -4.2384 C.ar    1  UNL1        0.0795
     22 C          16.6678   71.3856   -3.5207 C.ar    1  UNL1        0.2626
     23 H          16.2665   73.3810   -3.7994 H       1  UNL1        0.1734
     24 O          21.6055   74.1043   -4.1838 O.3     1  UNL1       -0.2703
     25 P          20.7017   74.6657   -2.9670 P.3     1  UNL1        0.2208
     26 O          19.2888   73.9057   -3.1730 O.3     1  UNL1       -0.4371
     27 O          20.5986   76.1632   -2.9163 O.2     1  UNL1       -0.5170
     28 O          21.3365   73.9960   -1.6432 O.3     1  UNL1       -0.2858
     29 O          20.5604   72.0027   -0.6313 O.3     1  UNL1       -0.3226
     30 O          22.3980   73.9390    2.5552 O.3     1  UNL1       -0.3794
     31 O          20.7801   75.4362    0.6456 O.3     1  UNL1       -0.3775
     32 O          21.3024   71.4472    2.0852 O.3     1  UNL1       -0.3792
     33 C          22.1707   73.5249    1.2109 C.3     1  UNL1        0.1718
     34 C          20.8025   74.0149    0.7248 C.3     1  UNL1        0.1968
     35 C          22.2329   71.9964    1.1463 C.3     1  UNL1        0.1723
     36 C          20.4754   73.4314   -0.6554 C.3     1  UNL1        0.2706
     37 C          21.8517   71.5260   -0.2557 C.3     1  UNL1        0.1830
     38 H          23.2718   73.6055    2.8211 H       1  UNL1        0.2105
     39 H          19.9005   75.6984    0.3256 H       1  UNL1        0.2106
     40 H          20.4033   71.5680    1.7357 H       1  UNL1        0.2106
     41 O          21.1151   69.6449   -1.4484 O.co2   1  UNL1       -0.5466
     42 O          22.2384   69.2652    0.4986 O.co2   1  UNL1       -0.5466
     43 C          21.7730   70.0343   -0.3298 C.2     1  UNL1        0.0799
@<TRIPOS>UNITY_ATOM_ATTR
41 1
charge -1
@<TRIPOS>BOND
     1     1     4    1
     2     1    24    1
     3     1     2    1
     4     1     3    2
     5    25    28    1
     6    25    24    1
     7    25    26    1
     8    25    27    2
     9     6    11    1
    10     6    12    1
    11    29    36    1
    12    29    37    1
    13     7     9    1
    14     7    13    1
    15     8    10    1
    16     8    14    1
    17     4     5    1
    18    28    36    1
    19    30    33    1
    20    30    38    1
    21    31    34    1
    22    31    39    1
    23    32    35    1
    24    32    40    1
    25    41    43   ar
    26    15    19    2
    27    42    43   ar
    28    16    22    2
    29    17    12    1
    30    17    19   ar
    31    17    20   ar
    32    18    19   ar
    33    18    22   ar
    34    18    23    1
    35     9    10    1
    36     9    11    1
    37    10    12    1
    38    11     5    1
    39    33    34    1
    40    33    35    1
    41    34    36    1
    42    35    37    1
    43    37    43    1
    44    20    21   ar
    45    21    22   ar
@<TRIPOS>MOLECULE
UDP-glaA
 43 45 0 0 0
SMALL
GASTEIGER

@<TRIPOS>ATOM
      1 P          21.6718   72.7888   -4.8361 P.3     1  UNL1        0.2189
      2 O          21.1418   73.9893   -3.8899 O.3     1  UNL1       -0.4371
      3 O          23.1490   72.7963   -5.1004 O.2     1  UNL1       -0.5170
      4 O          20.7234   72.8752   -6.1432 O.3     1  UNL1       -0.3112
      5 C          21.3101   72.6857   -7.4196 C.3     1  UNL1        0.1811
      6 O          19.2319   71.4821   -7.5029 O.3     1  UNL1       -0.3308
      7 O          19.8381   71.0079  -10.4010 O.3     1  UNL1       -0.3794
      8 O          18.0333   73.0498  -10.4965 O.3     1  UNL1       -0.3779
      9 C          20.1084   72.1567   -9.5979 C.3     1  UNL1        0.1713
     10 C          18.8314   72.9275   -9.3373 C.3     1  UNL1        0.1895
     11 C          20.4814   71.6764   -8.2016 C.3     1  UNL1        0.1764
     12 C          18.1697   72.0867   -8.2588 C.3     1  UNL1        0.2383
     13 H          20.6757   70.5258  -10.5085 H       1  UNL1        0.2105
     14 H          18.5668   73.5017  -11.1728 H       1  UNL1        0.2106
     15 O          16.1242   71.0352   -6.6200 O.2     1  UNL1       -0.2464
     16 O          15.1071   75.1917   -4.9087 O.2     1  UNL1       -0.2670
     17 N          17.3552   72.8709   -7.3750 N.ar    1  UNL1       -0.2551
     18 N          15.6187   73.1058   -5.7693 N.ar    1  UNL1       -0.2743
     19 C          16.3541   72.2457   -6.5955 C.ar    1  UNL1        0.3323
     20 C          17.5520   74.2446   -7.2871 C.ar    1  UNL1        0.0869
     21 C          16.8428   75.0509   -6.4942 C.ar    1  UNL1        0.0795
     22 C          15.7774   74.4776   -5.6481 C.ar    1  UNL1        0.2626
     23 H          14.8931   72.6782   -5.2002 H       1  UNL1        0.1734
     24 O          21.1294   71.4658   -4.0808 O.3     1  UNL1       -0.2703
     25 P          21.7464   70.6200   -2.8493 P.3     1  UNL1        0.2208
     26 O          23.3265   70.5666   -3.1905 O.3     1  UNL1       -0.4371
     27 O          21.1102   69.2747   -2.6460 O.2     1  UNL1       -0.5170
     28 O          21.6361   71.6084   -1.5785 O.3     1  UNL1       -0.2858
     29 O          23.2251   73.0390   -0.5648 O.3     1  UNL1       -0.3226
     30 O          21.0105   71.7412    2.7049 O.3     1  UNL1       -0.3794
     31 O          21.7362   69.8847    0.5759 O.3     1  UNL1       -0.3775
     32 O          22.9793   73.6209    2.2352 O.3     1  UNL1       -0.3792
     33 C          21.2827   72.1386    1.3639 C.3     1  UNL1        0.1718
     34 C          22.2954   71.1861    0.7193 C.3     1  UNL1        0.1968
     35 C          21.8379   73.5655    1.3732 C.3     1  UNL1        0.1723
     36 C          22.7242   71.7015   -0.6601 C.3     1  UNL1        0.2706
     37 C          22.2687   73.9577   -0.0385 C.3     1  UNL1        0.1830
     38 H          20.3685   72.3719    3.0732 H       1  UNL1        0.2105
     39 H          22.4081   69.3213    0.1564 H       1  UNL1        0.2106
     40 H          23.7238   73.1813    1.7906 H       1  UNL1        0.2106
     41 O          23.0457   75.7915    1.2014 O.co2   1  UNL1       -0.5466
     42 O          23.3357   75.8685   -1.0584 O.co2   1  UNL1       -0.5466
     43 C          22.9369   75.2958   -0.0547 C.2     1  UNL1        0.0799
@<TRIPOS>UNITY_ATOM_ATTR
41 1
charge -1
@<TRIPOS>BOND
     1     1     4    1
     2     1    24    1
     3     1     2    1
     4     1     3    2
     5    25    28    1
     6    25    24    1
     7    25    26    1
     8    25    27    2
     9     6    11    1
    10     6    12    1
    11    29    36    1
    12    29    37    1
    13     7     9    1
    14     7    13    1
    15     8    10    1
    16     8    14    1
    17     4     5    1
    18    28    36    1
    19    30    33    1
    20    30    38    1
    21    31    34    1
    22    31    39    1
    23    32    35    1
    24    32    40    1
    25    41    43   ar
    26    15    19    2
    27    42    43   ar
    28    16    22    2
    29    17    12    1
    30    17    19   ar
    31    17    20   ar
    32    18    19   ar
    33    18    22   ar
    34    18    23    1
    35     9    10    1
    36     9    11    1
    37    10    12    1
    38    11     5    1
    39    33    34    1
    40    33    35    1
    41    34    36    1
    42    35    37    1
    43    37    43    1
    44    20    21   ar
    45    21    22   ar
@<TRIPOS>MOLECULE
UDP-glaA
 43 45 0 0 0
SMALL
GASTEIGER

@<TRIPOS>ATOM
      1 P          19.2160   70.4833   -3.1959 P.3     1  UNL1        0.2189
      2 O          18.9424   69.1279   -2.3559 O.3     1  UNL1       -0.4371
      3 O          18.8080   71.7505   -2.5032 O.2     1  UNL1       -0.5170
      4 O          18.5114   70.2051   -4.6248 O.3     1  UNL1       -0.3112
      5 C          18.6448   71.1783   -5.6468 C.3     1  UNL1        0.1811
      6 O          16.5232   71.2779   -6.7708 O.3     1  UNL1       -0.3308
      7 O          17.9920   70.3765   -9.2247 O.3     1  UNL1       -0.3794
      8 O          17.7257   73.0582   -9.6415 O.3     1  UNL1       -0.3779
      9 C          18.4274   71.2464   -8.1800 C.3     1  UNL1        0.1713
     10 C          17.7546   72.5970   -8.3066 C.3     1  UNL1        0.1895
     11 C          17.8554   70.7272   -6.8674 C.3     1  UNL1        0.1764
     12 C          16.3673   72.3113   -7.7573 C.3     1  UNL1        0.2383
     13 H          18.4178   69.5143   -9.0802 H       1  UNL1        0.2105
     14 H          18.6457   73.1102   -9.9532 H       1  UNL1        0.2106
     15 O          14.4694   73.9927   -9.0008 O.2     1  UNL1       -0.2464
     16 O          14.1647   76.7024   -5.2855 O.2     1  UNL1       -0.2670
     17 N          15.7751   73.4626   -7.1381 N.ar    1  UNL1       -0.2551
     18 N          14.3193   75.3412   -7.1501 N.ar    1  UNL1       -0.2743
     19 C          14.8324   74.2410   -7.8496 C.ar    1  UNL1        0.3323
     20 C          16.1298   73.8106   -5.8395 C.ar    1  UNL1        0.0869
     21 C          15.6312   74.8624   -5.1861 C.ar    1  UNL1        0.0795
     22 C          14.6416   75.7275   -5.8583 C.ar    1  UNL1        0.2626
     23 H          13.6403   75.9156   -7.6422 H       1  UNL1        0.1734
     24 O          20.7923   70.3827   -3.5426 O.3     1  UNL1       -0.2703
     25 P          22.0635   71.1777   -2.9389 P.3     1  UNL1        0.2208
     26 O          21.8883   72.6690   -3.5400 O.3     1  UNL1       -0.4371
     27 O          23.3892   70.5394   -3.2406 O.2     1  UNL1       -0.5170
     28 O          21.7402   71.3311   -1.3654 O.3     1  UNL1       -0.2858
     29 O          23.3132   72.8301   -0.4283 O.3     1  UNL1       -0.3226
     30 O          21.0386   71.7705    2.8857 O.3     1  UNL1       -0.3794
     31 O          21.7992   69.7661    0.9084 O.3     1  UNL1       -0.3775
     32 O          23.0185   73.6111    2.3179 O.3     1  UNL1       -0.3792
     33 C          21.3353   72.0707    1.5247 C.3     1  UNL1        0.1718
     34 C          22.3578   71.0742    0.9683 C.3     1  UNL1        0.1968
     35 C          21.8925   73.4945    1.4418 C.3     1  UNL1        0.1723
     36 C          22.8119   71.4894   -0.4366 C.3     1  UNL1        0.2706
     37 C          22.3491   73.7845    0.0136 C.3     1  UNL1        0.1830
     38 H          20.3911   72.4262    3.1963 H       1  UNL1        0.2105
     39 H          22.4775   69.1739    0.5424 H       1  UNL1        0.2106
     40 H          23.7700   73.1405    1.9193 H       1  UNL1        0.2106
     41 O          22.5833   75.7919   -1.1777 O.co2   1  UNL1       -0.5466
     42 O          23.8458   75.5485    0.7049 O.co2   1  UNL1       -0.5466
     43 C          23.0195   75.1177   -0.0865 C.2     1  UNL1        0.0799
@<TRIPOS>UNITY_ATOM_ATTR
41 1
charge -1
@<TRIPOS>BOND
     1     1     4    1
     2     1    24    1
     3     1     2    1
     4     1     3    2
     5    25    28    1
     6    25    24    1
     7    25    26    1
     8    25    27    2
     9     6    11    1
    10     6    12    1
    11    29    36    1
    12    29    37    1
    13     7     9    1
    14     7    13    1
    15     8    10    1
    16     8    14    1
    17     4     5    1
    18    28    36    1
    19    30    33    1
    20    30    38    1
    21    31    34    1
    22    31    39    1
    23    32    35    1
    24    32    40    1
    25    41    43   ar
    26    15    19    2
    27    42    43   ar
    28    16    22    2
    29    17    12    1
    30    17    19   ar
    31    17    20   ar
    32    18    19   ar
    33    18    22   ar
    34    18    23    1
    35     9    10    1
    36     9    11    1
    37    10    12    1
    38    11     5    1
    39    33    34    1
    40    33    35    1
    41    34    36    1
    42    35    37    1
    43    37    43    1
    44    20    21   ar
    45    21    22   ar
