@<TRIPOS>MOLECULE
*****
 43 45 0 0 0
SMALL
GASTEIGER

@<TRIPOS>ATOM
      1 P          22.2955   75.1918   -5.6044 P.3     1  UNL1        0.2189
      2 O          21.5489   76.5932   -5.2920 O.co2   1  UNL1       -0.4371
      3 O          23.6627   75.3233   -6.2089 O.2     1  UNL1       -0.5170
      4 O          21.2165   74.3636   -6.4807 O.3     1  UNL1       -0.3112
      5 C          21.5939   73.1026   -7.0020 C.3     1  UNL1        0.1811
      6 O          20.0943   71.3527   -7.6852 O.3     1  UNL1       -0.3308
      7 O          18.7367   73.4286   -9.3701 O.3     1  UNL1       -0.3794
      8 O          17.0901   73.2494   -7.2038 O.3     1  UNL1       -0.3779
      9 C          19.3362   73.5616   -8.0812 C.3     1  UNL1        0.1713
     10 C          18.4542   72.9300   -7.0251 C.3     1  UNL1        0.1895
     11 C          20.5690   72.6689   -8.0422 C.3     1  UNL1        0.1764
     12 C          18.7388   71.4505   -7.2202 C.3     1  UNL1        0.2383
     13 H          17.9466   73.9899   -9.4191 H       1  UNL1        0.2105
     14 H          16.9607   74.2017   -7.0689 H       1  UNL1        0.2106
     15 O          16.3444   70.2351   -6.3448 O.2     1  UNL1       -0.2464
     16 O          18.3526   68.6036   -2.5305 O.2     1  UNL1       -0.2670
     17 N          18.6078   70.7020   -6.0022 N.ar    1  UNL1       -0.2551
     18 N          17.3466   69.4245   -4.4454 N.ar    1  UNL1       -0.2743
     19 C          17.3602   70.1322   -5.6545 C.ar    1  UNL1        0.3323
     20 C          19.7068   70.5372   -5.1679 C.ar    1  UNL1        0.0869
     21 C          19.6784   69.8598   -4.0185 C.ar    1  UNL1        0.0795
     22 C          18.4131   69.2339   -3.5818 C.ar    1  UNL1        0.2626
     23 H          16.4886   69.0205   -4.1812 H       1  UNL1        0.1734
     24 O          22.2607   74.4357   -4.1761 O.3     1  UNL1       -0.2703
     25 P          23.2610   73.3430   -3.5289 P.3     1  UNL1        0.2208
     26 O          24.7035   74.0741   -3.6002 O.co2   1  UNL1       -0.4371
     27 O          23.2162   71.9974   -4.1933 O.2     1  UNL1       -0.5170
     28 O          22.8897   73.3272   -1.9591 O.3     1  UNL1       -0.2858
     29 O          21.7156   71.5871   -0.8624 O.3     1  UNL1       -0.3226
     30 O          20.9179   74.8149    1.5897 O.3     1  UNL1       -0.3794
     31 O          20.8551   75.1114   -1.3159 O.3     1  UNL1       -0.3775
     32 O          22.8490   72.8023    2.4088 O.3     1  UNL1       -0.3792
     33 C          21.6901   74.0244    0.6859 C.3     1  UNL1        0.1718
     34 C          20.9315   73.8659   -0.6320 C.3     1  UNL1        0.1968
     35 C          21.9231   72.6576    1.3336 C.3     1  UNL1        0.1723
     36 C          21.6164   72.8415   -1.5377 C.3     1  UNL1        0.2706
     37 C          22.4912   71.6562    0.3321 C.3     1  UNL1        0.1830
     38 H          20.7571   75.6885    1.1993 H       1  UNL1        0.2105
     39 H          20.4218   75.7662   -0.7469 H       1  UNL1        0.2106
     40 H          22.4994   73.4373    3.0533 H       1  UNL1        0.2106
     41 O          23.3481   70.0605    1.8225 O.co2   1  UNL1       -0.5466
     42 O          21.6017   69.4199    0.5038 O.co2   1  UNL1       -0.5466
     43 C          22.4066   70.2640    0.8680 C.2     1  UNL1        0.0799
@<TRIPOS>UNITY_ATOM_ATTR
2 1
charge -1
26 1
charge -1
41 1
charge -1
@<TRIPOS>BOND
     1     1     4    1
     2     1    24    1
     3     1     2    1
     4     1     3    2
     5    25    28    1
     6    25    24    1
     7    25    26    1
     8    25    27    2
     9     6    11    1
    10     6    12    1
    11    29    36    1
    12    29    37    1
    13     7     9    1
    14     7    13    1
    15     8    10    1
    16     8    14    1
    17     4     5    1
    18    28    36    1
    19    30    33    1
    20    30    38    1
    21    31    34    1
    22    31    39    1
    23    32    35    1
    24    32    40    1
    25    41    43   ar
    26    15    19    2
    27    42    43   ar
    28    16    22    2
    29    17    12    1
    30    17    19   ar
    31    17    20   ar
    32    18    19   ar
    33    18    22   ar
    34    18    23    1
    35     9    10    1
    36     9    11    1
    37    10    12    1
    38    11     5    1
    39    33    34    1
    40    33    35    1
    41    34    36    1
    42    35    37    1
    43    37    43    1
    44    20    21   ar
    45    21    22   ar
@<TRIPOS>MOLECULE
*****
 43 45 0 0 0
SMALL
GASTEIGER

@<TRIPOS>ATOM
      1 P          22.7023   71.5923   -2.5133 P.3     1  UNL1        0.2189
      2 O          23.1058   73.0783   -3.0111 O.co2   1  UNL1       -0.4371
      3 O          23.4276   70.4742   -3.2030 O.2     1  UNL1       -0.5170
      4 O          21.0893   71.5655   -2.6376 O.3     1  UNL1       -0.3112
      5 C          20.4893   72.1506   -3.7788 C.3     1  UNL1        0.1811
      6 O          18.3714   72.3733   -4.8934 O.3     1  UNL1       -0.3308
      7 O          17.1751   71.0447   -2.4861 O.3     1  UNL1       -0.3794
      8 O          17.2967   69.0060   -4.2931 O.3     1  UNL1       -0.3779
      9 C          18.4329   70.8063   -3.1182 C.3     1  UNL1        0.1713
     10 C          18.2325   70.0564   -4.4181 C.3     1  UNL1        0.1895
     11 C          18.9763   72.1436   -3.6024 C.3     1  UNL1        0.1764
     12 C          17.7536   71.1586   -5.3475 C.3     1  UNL1        0.2383
     13 H          16.8081   70.2045   -2.1683 H       1  UNL1        0.2105
     14 H          17.6479   68.3299   -3.6919 H       1  UNL1        0.2106
     15 O          15.9398   70.5091   -7.4125 O.2     1  UNL1       -0.2464
     16 O          19.3086   70.2866  -10.5503 O.2     1  UNL1       -0.2670
     17 N          18.1297   70.9257   -6.7132 N.ar    1  UNL1       -0.2551
     18 N          17.6195   70.3979   -8.9731 N.ar    1  UNL1       -0.2743
     19 C          17.1405   70.6054   -7.6729 C.ar    1  UNL1        0.3323
     20 C          19.4640   71.0169   -7.0904 C.ar    1  UNL1        0.0869
     21 C          19.9053   70.8165   -8.3337 C.ar    1  UNL1        0.0795
     22 C          18.9364   70.4767   -9.3964 C.ar    1  UNL1        0.2626
     23 H          16.9497   70.1716   -9.6583 H       1  UNL1        0.1734
     24 O          22.9424   71.6668   -0.9165 O.3     1  UNL1       -0.2703
     25 P          22.5159   70.6542    0.2694 P.3     1  UNL1        0.2208
     26 O          23.7181   69.5702    0.2804 O.co2   1  UNL1       -0.4371
     27 O          21.1474   70.0583    0.1079 O.2     1  UNL1       -0.5170
     28 O          22.7206   71.5031    1.6258 O.3     1  UNL1       -0.2858
     29 O          21.8920   72.4285    3.6423 O.3     1  UNL1       -0.3226
     30 O          21.3851   75.5684    1.0057 O.3     1  UNL1       -0.3794
     31 O          20.7422   72.8362    0.1958 O.3     1  UNL1       -0.3775
     32 O          23.5599   75.6189    2.9341 O.3     1  UNL1       -0.3792
     33 C          22.0152   74.4042    1.5400 C.3     1  UNL1        0.1718
     34 C          21.0270   73.2376    1.5309 C.3     1  UNL1        0.1968
     35 C          22.4540   74.7189    2.9719 C.3     1  UNL1        0.1723
     36 C          21.5859   72.0412    2.3023 C.3     1  UNL1        0.2706
     37 C          22.8785   73.4555    3.7149 C.3     1  UNL1        0.1830
     38 H          21.0977   75.3921    0.0960 H       1  UNL1        0.2105
     39 H          20.3875   73.5906   -0.2995 H       1  UNL1        0.2106
     40 H          23.3029   76.4273    2.4637 H       1  UNL1        0.2106
     41 O          22.1512   72.8999    5.8745 O.co2   1  UNL1       -0.5466
     42 O          23.7240   74.5412    5.6968 O.co2   1  UNL1       -0.5466
     43 C          22.9862   73.7140    5.1825 C.2     1  UNL1        0.0799
@<TRIPOS>UNITY_ATOM_ATTR
2 1
charge -1
26 1
charge -1
41 1
charge -1
@<TRIPOS>BOND
     1     1     4    1
     2     1    24    1
     3     1     2    1
     4     1     3    2
     5    25    28    1
     6    25    24    1
     7    25    26    1
     8    25    27    2
     9     6    11    1
    10     6    12    1
    11    29    36    1
    12    29    37    1
    13     7     9    1
    14     7    13    1
    15     8    10    1
    16     8    14    1
    17     4     5    1
    18    28    36    1
    19    30    33    1
    20    30    38    1
    21    31    34    1
    22    31    39    1
    23    32    35    1
    24    32    40    1
    25    41    43   ar
    26    15    19    2
    27    42    43   ar
    28    16    22    2
    29    17    12    1
    30    17    19   ar
    31    17    20   ar
    32    18    19   ar
    33    18    22   ar
    34    18    23    1
    35     9    10    1
    36     9    11    1
    37    10    12    1
    38    11     5    1
    39    33    34    1
    40    33    35    1
    41    34    36    1
    42    35    37    1
    43    37    43    1
    44    20    21   ar
    45    21    22   ar
@<TRIPOS>MOLECULE
*****
 43 45 0 0 0
SMALL
GASTEIGER

@<TRIPOS>ATOM
      1 P          22.9537   71.5989   -2.8653 P.3     1  UNL1        0.2189
      2 O          23.7184   73.0001   -3.1315 O.co2   1  UNL1       -0.4371
      3 O          23.7629   70.3698   -3.1592 O.2     1  UNL1       -0.5170
      4 O          21.5728   71.7461   -3.6955 O.3     1  UNL1       -0.3112
      5 C          20.6593   70.6644   -3.6855 C.3     1  UNL1        0.1811
      6 O          18.8593   71.8273   -4.7742 O.3     1  UNL1       -0.3308
      7 O          17.0937   70.7382   -2.6090 O.3     1  UNL1       -0.3794
      8 O          16.5625   69.0752   -4.7038 O.3     1  UNL1       -0.3779
      9 C          18.2096   70.1277   -3.2576 C.3     1  UNL1        0.1713
     10 C          17.8300   69.6964   -4.6584 C.3     1  UNL1        0.1895
     11 C          19.2460   71.2100   -3.5273 C.3     1  UNL1        0.1764
     12 C          17.8630   71.0140   -5.4139 C.3     1  UNL1        0.2383
     13 H          16.4180   70.0661   -2.4264 H       1  UNL1        0.2105
     14 H          16.5935   68.2408   -4.2090 H       1  UNL1        0.2106
     15 O          16.0202   70.4065   -7.4661 O.2     1  UNL1       -0.2464
     16 O          19.3253   70.3877  -10.6786 O.2     1  UNL1       -0.2670
     17 N          18.2148   70.8449   -6.7953 N.ar    1  UNL1       -0.2551
     18 N          17.6682   70.3967   -9.0640 N.ar    1  UNL1       -0.2743
     19 C          17.2127   70.5408   -7.7468 C.ar    1  UNL1        0.3323
     20 C          19.5384   70.9817   -7.1957 C.ar    1  UNL1        0.0869
     21 C          19.9574   70.8416   -8.4549 C.ar    1  UNL1        0.0795
     22 C          18.9737   70.5227   -9.5105 C.ar    1  UNL1        0.2626
     23 H          16.9891   70.1829   -9.7439 H       1  UNL1        0.1734
     24 O          22.4704   71.7354   -1.3289 O.3     1  UNL1       -0.2703
     25 P          21.9732   70.6200   -0.2695 P.3     1  UNL1        0.2208
     26 O          23.3516   69.9075    0.1916 O.co2   1  UNL1       -0.4371
     27 O          20.9393   69.6751   -0.8099 O.2     1  UNL1       -0.5170
     28 O          21.4995   71.4639    1.0212 O.3     1  UNL1       -0.2858
     29 O          21.5681   73.8060    1.3664 O.3     1  UNL1       -0.3226
     30 O          22.0121   72.3753    5.2167 O.3     1  UNL1       -0.3794
     31 O          23.4272   71.1119    2.9951 O.3     1  UNL1       -0.3775
     32 O          19.4672   73.4874    4.3576 O.3     1  UNL1       -0.3792
     33 C          21.5423   72.3648    3.8686 C.3     1  UNL1        0.1718
     34 C          22.7343   72.3519    2.9114 C.3     1  UNL1        0.1968
     35 C          20.6993   73.6235    3.6519 C.3     1  UNL1        0.1723
     36 C          22.2793   72.5717    1.4679 C.3     1  UNL1        0.2706
     37 C          20.3928   73.8408    2.1729 C.3     1  UNL1        0.1830
     38 H          22.5506   71.5845    5.3777 H       1  UNL1        0.2105
     39 H          23.7186   70.9658    3.9084 H       1  UNL1        0.2106
     40 H          19.6483   73.3484    5.3003 H       1  UNL1        0.2106
     41 O          20.2561   76.0569    2.9290 O.co2   1  UNL1       -0.5466
     42 O          19.1776   75.5531    0.9843 O.co2   1  UNL1       -0.5466
     43 C          19.8651   75.2187    1.9374 C.2     1  UNL1        0.0799
@<TRIPOS>UNITY_ATOM_ATTR
2 1
charge -1
26 1
charge -1
41 1
charge -1
@<TRIPOS>BOND
     1     1     4    1
     2     1    24    1
     3     1     2    1
     4     1     3    2
     5    25    28    1
     6    25    24    1
     7    25    26    1
     8    25    27    2
     9     6    11    1
    10     6    12    1
    11    29    36    1
    12    29    37    1
    13     7     9    1
    14     7    13    1
    15     8    10    1
    16     8    14    1
    17     4     5    1
    18    28    36    1
    19    30    33    1
    20    30    38    1
    21    31    34    1
    22    31    39    1
    23    32    35    1
    24    32    40    1
    25    41    43   ar
    26    15    19    2
    27    42    43   ar
    28    16    22    2
    29    17    12    1
    30    17    19   ar
    31    17    20   ar
    32    18    19   ar
    33    18    22   ar
    34    18    23    1
    35     9    10    1
    36     9    11    1
    37    10    12    1
    38    11     5    1
    39    33    34    1
    40    33    35    1
    41    34    36    1
    42    35    37    1
    43    37    43    1
    44    20    21   ar
    45    21    22   ar
@<TRIPOS>MOLECULE
*****
 43 45 0 0 0
SMALL
GASTEIGER

@<TRIPOS>ATOM
      1 P          23.5909   74.1062   -3.8143 P.3     1  UNL1        0.2189
      2 O          24.4089   75.2232   -4.6522 O.co2   1  UNL1       -0.4371
      3 O          23.7914   72.6934   -4.2783 O.2     1  UNL1       -0.5170
      4 O          22.0649   74.6435   -3.8374 O.3     1  UNL1       -0.3112
      5 C          21.1202   73.9620   -4.6422 C.3     1  UNL1        0.1811
      6 O          21.0469   72.9968   -6.8423 O.3     1  UNL1       -0.3308
      7 O          21.5415   75.7691   -7.8725 O.3     1  UNL1       -0.3794
      8 O          18.8568   75.4663   -8.2422 O.3     1  UNL1       -0.3779
      9 C          20.7706   75.3474   -6.7471 C.3     1  UNL1        0.1713
     10 C          19.4687   74.7261   -7.2067 C.3     1  UNL1        0.1895
     11 C          21.4814   74.1621   -6.1084 C.3     1  UNL1        0.1764
     12 C          19.9198   73.3483   -7.6607 C.3     1  UNL1        0.2383
     13 H          21.1070   76.5258   -8.2971 H       1  UNL1        0.2105
     14 H          18.5874   76.3348   -7.9030 H       1  UNL1        0.2106
     15 O          18.9445   71.7059   -9.7410 O.2     1  UNL1       -0.2464
     16 O          15.9911   69.5718   -6.9183 O.2     1  UNL1       -0.2670
     17 N          18.8963   72.3550   -7.4972 N.ar    1  UNL1       -0.2551
     18 N          17.4737   70.6453   -8.3334 N.ar    1  UNL1       -0.2743
     19 C          18.4780   71.5832   -8.6068 C.ar    1  UNL1        0.3323
     20 C          18.3196   72.1524   -6.2493 C.ar    1  UNL1        0.0869
     21 C          17.3634   71.2544   -6.0040 C.ar    1  UNL1        0.0795
     22 C          16.8691   70.4077   -7.1096 C.ar    1  UNL1        0.2626
     23 H          17.1647   70.0975   -9.0908 H       1  UNL1        0.1734
     24 O          24.0516   74.3862   -2.2904 O.3     1  UNL1       -0.2703
     25 P          23.5649   75.4971   -1.2215 P.3     1  UNL1        0.2208
     26 O          22.3631   76.2551   -1.9971 O.co2   1  UNL1       -0.4371
     27 O          24.6576   76.4053   -0.7363 O.2     1  UNL1       -0.5170
     28 O          22.8307   74.6528   -0.0593 O.3     1  UNL1       -0.2858
     29 O          21.6893   72.6387   -0.5590 O.3     1  UNL1       -0.3226
     30 O          20.0732   73.6325    3.1109 O.3     1  UNL1       -0.3794
     31 O          20.5148   75.6874    1.0819 O.3     1  UNL1       -0.3775
     32 O          22.0447   71.5053    2.9125 O.3     1  UNL1       -0.3792
     33 C          21.0878   73.5654    2.1089 C.3     1  UNL1        0.1718
     34 C          20.6107   74.2871    0.8483 C.3     1  UNL1        0.1968
     35 C          21.3577   72.0895    1.8073 C.3     1  UNL1        0.1723
     36 C          21.5684   74.0412   -0.3184 C.3     1  UNL1        0.2706
     37 C          22.2164   71.9244    0.5568 C.3     1  UNL1        0.1830
     38 H          19.8849   74.5613    3.3189 H       1  UNL1        0.2105
     39 H          19.9089   75.8507    1.8212 H       1  UNL1        0.2106
     40 H          21.5088   71.6038    3.7150 H       1  UNL1        0.2106
     41 O          22.8366   70.3912   -1.1064 O.co2   1  UNL1       -0.5466
     42 O          21.6887   69.5737    0.6862 O.co2   1  UNL1       -0.5466
     43 C          22.2003   70.5067    0.0855 C.2     1  UNL1        0.0799
@<TRIPOS>UNITY_ATOM_ATTR
2 1
charge -1
26 1
charge -1
41 1
charge -1
@<TRIPOS>BOND
     1     1     4    1
     2     1    24    1
     3     1     2    1
     4     1     3    2
     5    25    28    1
     6    25    24    1
     7    25    26    1
     8    25    27    2
     9     6    11    1
    10     6    12    1
    11    29    36    1
    12    29    37    1
    13     7     9    1
    14     7    13    1
    15     8    10    1
    16     8    14    1
    17     4     5    1
    18    28    36    1
    19    30    33    1
    20    30    38    1
    21    31    34    1
    22    31    39    1
    23    32    35    1
    24    32    40    1
    25    41    43   ar
    26    15    19    2
    27    42    43   ar
    28    16    22    2
    29    17    12    1
    30    17    19   ar
    31    17    20   ar
    32    18    19   ar
    33    18    22   ar
    34    18    23    1
    35     9    10    1
    36     9    11    1
    37    10    12    1
    38    11     5    1
    39    33    34    1
    40    33    35    1
    41    34    36    1
    42    35    37    1
    43    37    43    1
    44    20    21   ar
    45    21    22   ar
@<TRIPOS>MOLECULE
*****
 43 45 0 0 0
SMALL
GASTEIGER

@<TRIPOS>ATOM
      1 P          22.6788   70.9466   -1.8840 P.3     1  UNL1        0.2189
      2 O          23.5022   70.5719   -3.2259 O.co2   1  UNL1       -0.4371
      3 O          23.1650   70.2741   -0.6338 O.2     1  UNL1       -0.5170
      4 O          21.1368   70.6602   -2.2817 O.3     1  UNL1       -0.3112
      5 C          20.6703   71.1034   -3.5429 C.3     1  UNL1        0.1811
      6 O          18.7936   72.0881   -4.6768 O.3     1  UNL1       -0.3308
      7 O          17.1058   70.9612   -2.4693 O.3     1  UNL1       -0.3794
      8 O          16.7024   69.1815   -4.4957 O.3     1  UNL1       -0.3779
      9 C          18.2648   70.4078   -3.0932 C.3     1  UNL1        0.1713
     10 C          17.9213   69.8944   -4.4754 C.3     1  UNL1        0.1895
     11 C          19.2207   71.5509   -3.4063 C.3     1  UNL1        0.1764
     12 C          17.8606   71.1796   -5.2832 C.3     1  UNL1        0.2383
     13 H          16.4802   70.2496   -2.2598 H       1  UNL1        0.2105
     14 H          16.7924   68.3720   -3.9679 H       1  UNL1        0.2106
     15 O          16.0636   70.3981   -7.3170 O.2     1  UNL1       -0.2464
     16 O          19.3790   70.4491  -10.5184 O.2     1  UNL1       -0.2670
     17 N          18.2275   70.9814   -6.6568 N.ar    1  UNL1       -0.2551
     18 N          17.7168   70.4232   -8.9094 N.ar    1  UNL1       -0.2743
     19 C          17.2481   70.5884   -7.5994 C.ar    1  UNL1        0.3323
     20 C          19.5432   71.1774   -7.0585 C.ar    1  UNL1        0.0869
     21 C          19.9750   71.0162   -8.3109 C.ar    1  UNL1        0.0795
     22 C          19.0153   70.6057   -9.3568 C.ar    1  UNL1        0.2626
     23 H          17.0536   70.1479   -9.5830 H       1  UNL1        0.1734
     24 O          22.7520   72.5611   -1.8523 O.3     1  UNL1       -0.2703
     25 P          22.1245   73.6318   -0.8163 P.3     1  UNL1        0.2208
     26 O          22.6980   73.1409    0.6157 O.co2   1  UNL1       -0.4371
     27 O          20.6286   73.7443   -0.8777 O.2     1  UNL1       -0.5170
     28 O          22.9123   75.0062   -1.1209 O.3     1  UNL1       -0.2858
     29 O          24.7216   75.3389   -2.6125 O.3     1  UNL1       -0.3226
     30 O          25.4261   78.2556    0.2273 O.3     1  UNL1       -0.3794
     31 O          24.5766   75.5790    1.0328 O.3     1  UNL1       -0.3775
     32 O          24.3330   78.9791   -2.3674 O.3     1  UNL1       -0.3792
     33 C          24.6300   77.3895   -0.5814 C.3     1  UNL1        0.1718
     34 C          24.9907   75.9343   -0.2814 C.3     1  UNL1        0.1968
     35 C          24.9161   77.7171   -2.0486 C.3     1  UNL1        0.1723
     36 C          24.3292   74.9886   -1.2848 C.3     1  UNL1        0.2706
     37 C          24.3302   76.6598   -2.9800 C.3     1  UNL1        0.1830
     38 H          25.2610   78.0656    1.1643 H       1  UNL1        0.2105
     39 H          24.9924   76.1752    1.6746 H       1  UNL1        0.2106
     40 H          24.6974   79.6609   -1.7815 H       1  UNL1        0.2106
     41 O          24.5049   75.7593   -5.1387 O.co2   1  UNL1       -0.5466
     42 O          25.5833   77.7290   -4.7430 O.co2   1  UNL1       -0.5466
     43 C          24.8849   76.8024   -4.3599 C.2     1  UNL1        0.0799
@<TRIPOS>UNITY_ATOM_ATTR
2 1
charge -1
26 1
charge -1
41 1
charge -1
@<TRIPOS>BOND
     1     1     4    1
     2     1    24    1
     3     1     2    1
     4     1     3    2
     5    25    28    1
     6    25    24    1
     7    25    26    1
     8    25    27    2
     9     6    11    1
    10     6    12    1
    11    29    36    1
    12    29    37    1
    13     7     9    1
    14     7    13    1
    15     8    10    1
    16     8    14    1
    17     4     5    1
    18    28    36    1
    19    30    33    1
    20    30    38    1
    21    31    34    1
    22    31    39    1
    23    32    35    1
    24    32    40    1
    25    41    43   ar
    26    15    19    2
    27    42    43   ar
    28    16    22    2
    29    17    12    1
    30    17    19   ar
    31    17    20   ar
    32    18    19   ar
    33    18    22   ar
    34    18    23    1
    35     9    10    1
    36     9    11    1
    37    10    12    1
    38    11     5    1
    39    33    34    1
    40    33    35    1
    41    34    36    1
    42    35    37    1
    43    37    43    1
    44    20    21   ar
    45    21    22   ar
@<TRIPOS>MOLECULE
*****
 43 45 0 0 0
SMALL
GASTEIGER

@<TRIPOS>ATOM
      1 P          22.8426   72.6414   -3.7970 P.3     1  UNL1        0.2189
      2 O          23.1532   73.0503   -5.3317 O.co2   1  UNL1       -0.4371
      3 O          23.4825   71.3633   -3.3400 O.2     1  UNL1       -0.5170
      4 O          21.2283   72.6927   -3.7004 O.3     1  UNL1       -0.3112
      5 C          20.5220   71.4770   -3.5338 C.3     1  UNL1        0.1811
      6 O          18.5668   72.2475   -4.7005 O.3     1  UNL1       -0.3308
      7 O          16.9798   70.9999   -2.4832 O.3     1  UNL1       -0.3794
      8 O          16.7743   69.1506   -4.4766 O.3     1  UNL1       -0.3779
      9 C          18.1938   70.5534   -3.0876 C.3     1  UNL1        0.1713
     10 C          17.9159   69.9819   -4.4618 C.3     1  UNL1        0.1895
     11 C          19.0337   71.7800   -3.4165 C.3     1  UNL1        0.1764
     12 C          17.7346   71.2390   -5.2953 C.3     1  UNL1        0.2383
     13 H          16.4264   70.2336   -2.2640 H       1  UNL1        0.2105
     14 H          16.9398   68.3644   -3.9321 H       1  UNL1        0.2106
     15 O          16.0130   70.3475   -7.3490 O.2     1  UNL1       -0.2464
     16 O          19.3675   70.5587  -10.5029 O.2     1  UNL1       -0.2670
     17 N          18.1320   71.0522   -6.6621 N.ar    1  UNL1       -0.2551
     18 N          17.6856   70.4525   -8.9177 N.ar    1  UNL1       -0.2743
     19 C          17.1894   70.6003   -7.6158 C.ar    1  UNL1        0.3323
     20 C          19.4408   71.3172   -7.0463 C.ar    1  UNL1        0.0869
     21 C          19.8991   71.1717   -8.2912 C.ar    1  UNL1        0.0795
     22 C          18.9787   70.7027   -9.3478 C.ar    1  UNL1        0.2626
     23 H          17.0484   70.1371   -9.5987 H       1  UNL1        0.1734
     24 O          23.2979   73.9549   -2.9723 O.3     1  UNL1       -0.2703
     25 P          22.4519   74.9685   -2.0392 P.3     1  UNL1        0.2208
     26 O          20.9742   74.9324   -2.6989 O.co2   1  UNL1       -0.4371
     27 O          23.0456   76.3428   -1.9269 O.2     1  UNL1       -0.5170
     28 O          22.2896   74.1924   -0.6342 O.3     1  UNL1       -0.2858
     29 O          21.4317   71.9961   -0.4122 O.3     1  UNL1       -0.3226
     30 O          20.6978   73.5683    3.3371 O.3     1  UNL1       -0.3794
     31 O          20.2143   75.1671    0.9403 O.3     1  UNL1       -0.3775
     32 O          22.8901   71.7006    2.9416 O.3     1  UNL1       -0.3792
     33 C          21.4054   73.4053    2.1080 C.3     1  UNL1        0.1718
     34 C          20.4911   73.7714    0.9386 C.3     1  UNL1        0.1968
     35 C          21.8424   71.9424    2.0043 C.3     1  UNL1        0.1723
     36 C          21.1327   73.3925   -0.3969 C.3     1  UNL1        0.2706
     37 C          22.3537   71.6116    0.6052 C.3     1  UNL1        0.1830
     38 H          20.4100   74.4907    3.4249 H       1  UNL1        0.2105
     39 H          19.8073   75.4146    1.7850 H       1  UNL1        0.2106
     40 H          22.5777   71.9075    3.8362 H       1  UNL1        0.2106
     41 O          23.6999   69.7993   -0.0311 O.co2   1  UNL1       -0.5466
     42 O          21.5705   69.3297    0.6353 O.co2   1  UNL1       -0.5466
     43 C          22.4643   70.1336    0.4165 C.2     1  UNL1        0.0799
@<TRIPOS>UNITY_ATOM_ATTR
2 1
charge -1
26 1
charge -1
41 1
charge -1
@<TRIPOS>BOND
     1     1     4    1
     2     1    24    1
     3     1     2    1
     4     1     3    2
     5    25    28    1
     6    25    24    1
     7    25    26    1
     8    25    27    2
     9     6    11    1
    10     6    12    1
    11    29    36    1
    12    29    37    1
    13     7     9    1
    14     7    13    1
    15     8    10    1
    16     8    14    1
    17     4     5    1
    18    28    36    1
    19    30    33    1
    20    30    38    1
    21    31    34    1
    22    31    39    1
    23    32    35    1
    24    32    40    1
    25    41    43   ar
    26    15    19    2
    27    42    43   ar
    28    16    22    2
    29    17    12    1
    30    17    19   ar
    31    17    20   ar
    32    18    19   ar
    33    18    22   ar
    34    18    23    1
    35     9    10    1
    36     9    11    1
    37    10    12    1
    38    11     5    1
    39    33    34    1
    40    33    35    1
    41    34    36    1
    42    35    37    1
    43    37    43    1
    44    20    21   ar
    45    21    22   ar
@<TRIPOS>MOLECULE
*****
 43 45 0 0 0
SMALL
GASTEIGER

@<TRIPOS>ATOM
      1 P          21.5477   70.6747   -1.0626 P.3     1  UNL1        0.2189
      2 O          23.0917   70.7662   -1.5386 O.co2   1  UNL1       -0.4371
      3 O          21.3064   69.8150    0.1434 O.2     1  UNL1       -0.5170
      4 O          20.7526   70.2427   -2.4039 O.3     1  UNL1       -0.3112
      5 C          20.4945   71.2305   -3.3847 C.3     1  UNL1        0.1811
      6 O          18.6328   72.1524   -4.5938 O.3     1  UNL1       -0.3308
      7 O          16.8997   71.0012   -2.4345 O.3     1  UNL1       -0.3794
      8 O          16.6159   69.1915   -4.4546 O.3     1  UNL1       -0.3779
      9 C          18.0944   70.4738   -3.0117 C.3     1  UNL1        0.1713
     10 C          17.8137   69.9377   -4.3995 C.3     1  UNL1        0.1895
     11 C          19.0294   71.6395   -3.3035 C.3     1  UNL1        0.1764
     12 C          17.7466   71.2129   -5.2226 C.3     1  UNL1        0.2383
     13 H          16.2865   70.2748   -2.2393 H       1  UNL1        0.2105
     14 H          16.7092   68.3900   -3.9153 H       1  UNL1        0.2106
     15 O          16.0420   70.3710   -7.3111 O.2     1  UNL1       -0.2464
     16 O          19.4672   70.4728  -10.3936 O.2     1  UNL1       -0.2670
     17 N          18.1667   71.0114   -6.5804 N.ar    1  UNL1       -0.2551
     18 N          17.7498   70.4215   -8.8441 N.ar    1  UNL1       -0.2743
     19 C          17.2310   70.5870   -7.5532 C.ar    1  UNL1        0.3323
     20 C          19.4910   71.2352   -6.9372 C.ar    1  UNL1        0.0869
     21 C          19.9707   71.0733   -8.1719 C.ar    1  UNL1        0.0795
     22 C          19.0587   70.6310   -9.2471 C.ar    1  UNL1        0.2626
     23 H          17.1177   70.1246   -9.5381 H       1  UNL1        0.1734
     24 O          21.1324   72.2259   -0.8778 O.3     1  UNL1       -0.2703
     25 P          22.0273   73.5330   -0.5547 P.3     1  UNL1        0.2208
     26 O          21.0030   74.7577   -0.8218 O.co2   1  UNL1       -0.4371
     27 O          23.3052   73.6135   -1.3386 O.2     1  UNL1       -0.5170
     28 O          22.2244   73.5087    1.0462 O.3     1  UNL1       -0.2858
     29 O          20.8496   74.7747    2.5010 O.3     1  UNL1       -0.3226
     30 O          24.1609   74.0749    4.8704 O.3     1  UNL1       -0.3794
     31 O          24.4784   74.7882    2.0553 O.3     1  UNL1       -0.3775
     32 O          21.7062   72.5827    5.3159 O.3     1  UNL1       -0.3792
     33 C          23.1994   73.7843    3.8560 C.3     1  UNL1        0.1718
     34 C          23.2534   74.8643    2.7752 C.3     1  UNL1        0.1968
     35 C          21.8162   73.7544    4.5100 C.3     1  UNL1        0.1723
     36 C          22.0893   74.7156    1.7945 C.3     1  UNL1        0.2706
     37 C          20.7056   73.7328    3.4637 C.3     1  UNL1        0.1830
     38 H          25.0479   74.0991    4.4781 H       1  UNL1        0.2105
     39 H          25.2213   74.8816    2.6715 H       1  UNL1        0.2106
     40 H          22.4075   72.5840    5.9859 H       1  UNL1        0.2106
     41 O          18.5794   74.6917    3.2157 O.co2   1  UNL1       -0.5466
     42 O          19.0589   73.7308    5.2272 O.co2   1  UNL1       -0.5466
     43 C          19.3823   74.0339    4.0885 C.2     1  UNL1        0.0799
@<TRIPOS>UNITY_ATOM_ATTR
2 1
charge -1
26 1
charge -1
41 1
charge -1
@<TRIPOS>BOND
     1     1     4    1
     2     1    24    1
     3     1     2    1
     4     1     3    2
     5    25    28    1
     6    25    24    1
     7    25    26    1
     8    25    27    2
     9     6    11    1
    10     6    12    1
    11    29    36    1
    12    29    37    1
    13     7     9    1
    14     7    13    1
    15     8    10    1
    16     8    14    1
    17     4     5    1
    18    28    36    1
    19    30    33    1
    20    30    38    1
    21    31    34    1
    22    31    39    1
    23    32    35    1
    24    32    40    1
    25    41    43   ar
    26    15    19    2
    27    42    43   ar
    28    16    22    2
    29    17    12    1
    30    17    19   ar
    31    17    20   ar
    32    18    19   ar
    33    18    22   ar
    34    18    23    1
    35     9    10    1
    36     9    11    1
    37    10    12    1
    38    11     5    1
    39    33    34    1
    40    33    35    1
    41    34    36    1
    42    35    37    1
    43    37    43    1
    44    20    21   ar
    45    21    22   ar
@<TRIPOS>MOLECULE
*****
 43 45 0 0 0
SMALL
GASTEIGER

@<TRIPOS>ATOM
      1 P          22.4254   72.9912   -4.5886 P.3     1  UNL1        0.2189
      2 O          22.6193   73.6756   -6.0421 O.co2   1  UNL1       -0.4371
      3 O          23.6784   72.4357   -3.9776 O.2     1  UNL1       -0.5170
      4 O          21.2246   71.9308   -4.8155 O.3     1  UNL1       -0.3112
      5 C          20.6907   71.2622   -3.6875 C.3     1  UNL1        0.1811
      6 O          18.7499   72.1332   -4.8065 O.3     1  UNL1       -0.3308
      7 O          17.1559   70.9714   -2.5480 O.3     1  UNL1       -0.3794
      8 O          16.8043   69.1342   -4.5322 O.3     1  UNL1       -0.3779
      9 C          18.3294   70.4617   -3.1816 C.3     1  UNL1        0.1713
     10 C          17.9878   69.9048   -4.5474 C.3     1  UNL1        0.1895
     11 C          19.2238   71.6426   -3.5337 C.3     1  UNL1        0.1764
     12 C          17.8516   71.1692   -5.3785 C.3     1  UNL1        0.2383
     13 H          16.5688   70.2351   -2.3136 H       1  UNL1        0.2105
     14 H          16.9422   68.3407   -3.9906 H       1  UNL1        0.2106
     15 O          16.0381   70.3535   -7.3840 O.2     1  UNL1       -0.2464
     16 O          19.3159   70.4025  -10.6240 O.2     1  UNL1       -0.2670
     17 N          18.2044   70.9612   -6.7544 N.ar    1  UNL1       -0.2551
     18 N          17.6726   70.3777   -8.9956 N.ar    1  UNL1       -0.2743
     19 C          17.2175   70.5512   -7.6819 C.ar    1  UNL1        0.3323
     20 C          19.5137   71.1645   -7.1731 C.ar    1  UNL1        0.0869
     21 C          19.9323   70.9952   -8.4289 C.ar    1  UNL1        0.0795
     22 C          18.9642   70.5669   -9.4598 C.ar    1  UNL1        0.2626
     23 H          17.0041   70.0905   -9.6589 H       1  UNL1        0.1734
     24 O          21.7182   74.1622   -3.7275 O.3     1  UNL1       -0.2703
     25 P          21.9809   74.6753   -2.2171 P.3     1  UNL1        0.2208
     26 O          20.6220   75.4781   -1.8576 O.co2   1  UNL1       -0.4371
     27 O          23.2373   75.4800   -2.0499 O.2     1  UNL1       -0.5170
     28 O          21.9160   73.3401   -1.3141 O.3     1  UNL1       -0.2858
     29 O          23.2884   73.5732    0.6020 O.3     1  UNL1       -0.3226
     30 O          21.9724   69.6753    0.9798 O.3     1  UNL1       -0.3794
     31 O          22.7878   70.7172   -1.6249 O.3     1  UNL1       -0.3775
     32 O          20.8387   71.7666    2.6507 O.3     1  UNL1       -0.3792
     33 C          21.8853   71.0494    0.6025 C.3     1  UNL1        0.1718
     34 C          23.0044   71.3809   -0.3850 C.3     1  UNL1        0.1968
     35 C          22.0245   71.8973    1.8689 C.3     1  UNL1        0.1723
     36 C          23.0855   72.8876   -0.6342 C.3     1  UNL1        0.2706
     37 C          22.2270   73.3718    1.5326 C.3     1  UNL1        0.1830
     38 H          21.8866   69.1172    0.1909 H       1  UNL1        0.2105
     39 H          22.7349   69.7607   -1.4742 H       1  UNL1        0.2106
     40 H          20.6982   70.8326    2.8714 H       1  UNL1        0.2106
     41 O          21.6297   74.4902    3.5059 O.co2   1  UNL1       -0.5466
     42 O          23.8498   74.3963    2.9948 O.co2   1  UNL1       -0.5466
     43 C          22.6857   74.1319    2.7343 C.2     1  UNL1        0.0799
@<TRIPOS>UNITY_ATOM_ATTR
2 1
charge -1
26 1
charge -1
41 1
charge -1
@<TRIPOS>BOND
     1     1     4    1
     2     1    24    1
     3     1     2    1
     4     1     3    2
     5    25    28    1
     6    25    24    1
     7    25    26    1
     8    25    27    2
     9     6    11    1
    10     6    12    1
    11    29    36    1
    12    29    37    1
    13     7     9    1
    14     7    13    1
    15     8    10    1
    16     8    14    1
    17     4     5    1
    18    28    36    1
    19    30    33    1
    20    30    38    1
    21    31    34    1
    22    31    39    1
    23    32    35    1
    24    32    40    1
    25    41    43   ar
    26    15    19    2
    27    42    43   ar
    28    16    22    2
    29    17    12    1
    30    17    19   ar
    31    17    20   ar
    32    18    19   ar
    33    18    22   ar
    34    18    23    1
    35     9    10    1
    36     9    11    1
    37    10    12    1
    38    11     5    1
    39    33    34    1
    40    33    35    1
    41    34    36    1
    42    35    37    1
    43    37    43    1
    44    20    21   ar
    45    21    22   ar
@<TRIPOS>MOLECULE
*****
 43 45 0 0 0
SMALL
GASTEIGER

@<TRIPOS>ATOM
      1 P          22.8215   73.4079   -4.1787 P.3     1  UNL1        0.2189
      2 O          22.1164   74.5117   -3.2283 O.co2   1  UNL1       -0.4371
      3 O          24.2657   73.1385   -3.8732 O.2     1  UNL1       -0.5170
      4 O          22.5056   73.9275   -5.6781 O.3     1  UNL1       -0.3112
      5 C          21.2763   74.5868   -5.9203 C.3     1  UNL1        0.1811
      6 O          20.6693   73.7229   -8.0797 O.3     1  UNL1       -0.3308
      7 O          20.5233   76.5807   -8.9757 O.3     1  UNL1       -0.3794
      8 O          17.9006   75.9435   -8.5868 O.3     1  UNL1       -0.3779
      9 C          20.1698   76.0095   -7.7158 C.3     1  UNL1        0.1713
     10 C          18.8692   75.2436   -7.8341 C.3     1  UNL1        0.1895
     11 C          21.1659   74.9002   -7.4069 C.3     1  UNL1        0.1764
     12 C          19.3195   73.9598   -8.5101 C.3     1  UNL1        0.2383
     13 H          19.9008   77.2922   -9.1946 H       1  UNL1        0.2105
     14 H          17.6465   76.7523   -8.1144 H       1  UNL1        0.2106
     15 O          19.0163   71.6335  -10.0826 O.2     1  UNL1       -0.2464
     16 O          16.1809   69.7018   -7.0048 O.2     1  UNL1       -0.2670
     17 N          18.5081   72.8337   -8.1436 N.ar    1  UNL1       -0.2551
     18 N          17.6036   70.6740   -8.5487 N.ar    1  UNL1       -0.2743
     19 C          18.4237   71.7143   -9.0050 C.ar    1  UNL1        0.3323
     20 C          17.8086   72.8443   -6.9430 C.ar    1  UNL1        0.0869
     21 C          17.0309   71.8451   -6.5215 C.ar    1  UNL1        0.0795
     22 C          16.8878   70.6390   -7.3630 C.ar    1  UNL1        0.2626
     23 H          17.5275   69.8848   -9.1324 H       1  UNL1        0.1734
     24 O          21.8503   72.1247   -4.0267 O.3     1  UNL1       -0.2703
     25 P          21.8998   70.8709   -3.0073 P.3     1  UNL1        0.2208
     26 O          23.4520   70.4143   -3.0577 O.co2   1  UNL1       -0.4371
     27 O          20.9227   69.7773   -3.3283 O.2     1  UNL1       -0.5170
     28 O          21.7153   71.5254   -1.5444 O.3     1  UNL1       -0.2858
     29 O          23.4419   72.7430   -0.4739 O.3     1  UNL1       -0.3226
     30 O          21.0548   71.6794    2.7259 O.3     1  UNL1       -0.3794
     31 O          21.6257   69.7576    0.6010 O.3     1  UNL1       -0.3775
     32 O          21.0021   74.4017    1.7074 O.3     1  UNL1       -0.3792
     33 C          21.3371   72.0393    1.3736 C.3     1  UNL1        0.1718
     34 C          22.2840   71.0094    0.7570 C.3     1  UNL1        0.1968
     35 C          21.9877   73.4244    1.3787 C.3     1  UNL1        0.1723
     36 C          22.7900   71.4794   -0.6075 C.3     1  UNL1        0.2706
     37 C          22.5786   73.7674    0.0143 C.3     1  UNL1        0.1830
     38 H          20.6408   70.8023    2.7476 H       1  UNL1        0.2105
     39 H          21.3018   69.4535    1.4630 H       1  UNL1        0.2106
     40 H          20.6180   74.1949    2.5738 H       1  UNL1        0.2106
     41 O          24.4644   74.8823   -0.8238 O.co2   1  UNL1       -0.5466
     42 O          23.3647   75.8625    0.9166 O.co2   1  UNL1       -0.5466
     43 C          23.4845   74.9516    0.1110 C.2     1  UNL1        0.0799
@<TRIPOS>UNITY_ATOM_ATTR
2 1
charge -1
26 1
charge -1
41 1
charge -1
@<TRIPOS>BOND
     1     1     4    1
     2     1    24    1
     3     1     2    1
     4     1     3    2
     5    25    28    1
     6    25    24    1
     7    25    26    1
     8    25    27    2
     9     6    11    1
    10     6    12    1
    11    29    36    1
    12    29    37    1
    13     7     9    1
    14     7    13    1
    15     8    10    1
    16     8    14    1
    17     4     5    1
    18    28    36    1
    19    30    33    1
    20    30    38    1
    21    31    34    1
    22    31    39    1
    23    32    35    1
    24    32    40    1
    25    41    43   ar
    26    15    19    2
    27    42    43   ar
    28    16    22    2
    29    17    12    1
    30    17    19   ar
    31    17    20   ar
    32    18    19   ar
    33    18    22   ar
    34    18    23    1
    35     9    10    1
    36     9    11    1
    37    10    12    1
    38    11     5    1
    39    33    34    1
    40    33    35    1
    41    34    36    1
    42    35    37    1
    43    37    43    1
    44    20    21   ar
    45    21    22   ar
@<TRIPOS>MOLECULE
*****
 43 45 0 0 0
SMALL
GASTEIGER

@<TRIPOS>ATOM
      1 P          22.4066   71.2150   -2.8965 P.3     1  UNL1        0.2189
      2 O          21.5081   70.3600   -1.8571 O.co2   1  UNL1       -0.4371
      3 O          23.6601   70.5328   -3.3605 O.2     1  UNL1       -0.5170
      4 O          22.6146   72.6366   -2.1523 O.3     1  UNL1       -0.3112
      5 C          22.2715   72.7392   -0.7826 C.3     1  UNL1        0.1811
      6 O          20.4082   73.2174    0.6586 O.3     1  UNL1       -0.3308
      7 O          19.8199   75.5167   -1.1740 O.3     1  UNL1       -0.3794
      8 O          21.0592   76.7327    0.9288 O.3     1  UNL1       -0.3779
      9 C          21.0811   74.9876   -0.7642 C.3     1  UNL1        0.1713
     10 C          21.3741   75.3808    0.6682 C.3     1  UNL1        0.1895
     11 C          20.9436   73.4750   -0.6575 C.3     1  UNL1        0.1764
     12 C          20.4962   74.4155    1.4462 C.3     1  UNL1        0.2383
     13 H          19.8830   76.4822   -1.2490 H       1  UNL1        0.2105
     14 H          21.6454   77.3069    0.4104 H       1  UNL1        0.2106
     15 O          21.0423   71.7886    2.3281 O.2     1  UNL1       -0.2464
     16 O          22.6030   73.2843    6.3989 O.2     1  UNL1       -0.2670
     17 N          21.0454   74.0898    2.7319 N.ar    1  UNL1       -0.2551
     18 N          21.8181   72.5360    4.3551 N.ar    1  UNL1       -0.2743
     19 C          21.2816   72.7380    3.0767 C.ar    1  UNL1        0.3323
     20 C          21.3455   75.1027    3.6347 C.ar    1  UNL1        0.0869
     21 C          21.8567   74.8946    4.8496 C.ar    1  UNL1        0.0795
     22 C          22.1326   73.5108    5.2882 C.ar    1  UNL1        0.2626
     23 H          21.9893   71.6029    4.6185 H       1  UNL1        0.1734
     24 O          21.3585   71.5713   -4.0744 O.3     1  UNL1       -0.2703
     25 P          21.2436   72.8647   -5.0375 P.3     1  UNL1        0.2208
     26 O          22.6851   72.9074   -5.7729 O.co2   1  UNL1       -0.4371
     27 O          20.8757   74.1332   -4.3238 O.2     1  UNL1       -0.5170
     28 O          20.2094   72.4231   -6.1942 O.3     1  UNL1       -0.2858
     29 O          19.0807   70.3510   -5.9903 O.3     1  UNL1       -0.3226
     30 O          18.4863   71.2432   -9.9802 O.3     1  UNL1       -0.3794
     31 O          21.0879   71.7001   -8.7322 O.3     1  UNL1       -0.3775
     32 O          16.3203   71.5813   -8.0709 O.3     1  UNL1       -0.3792
     33 C          18.6716   71.5306   -8.5941 C.3     1  UNL1        0.1718
     34 C          20.0197   70.9764   -8.1324 C.3     1  UNL1        0.1968
     35 C          17.5304   70.8700   -7.8175 C.3     1  UNL1        0.1723
     36 C          20.1536   71.0602   -6.6113 C.3     1  UNL1        0.2706
     37 C          17.7983   70.8828   -6.3153 C.3     1  UNL1        0.1830
     38 H          19.2001   71.6530  -10.4938 H       1  UNL1        0.2105
     39 H          21.0090   71.6514   -9.6975 H       1  UNL1        0.2106
     40 H          16.1384   71.5807   -9.0237 H       1  UNL1        0.2106
     41 O          16.1764   69.1970   -6.4865 O.co2   1  UNL1       -0.5466
     42 O          16.7298   69.8987   -4.3888 O.co2   1  UNL1       -0.5466
     43 C          16.8627   69.9620   -5.6018 C.2     1  UNL1        0.0799
@<TRIPOS>UNITY_ATOM_ATTR
2 1
charge -1
26 1
charge -1
41 1
charge -1
@<TRIPOS>BOND
     1     1     4    1
     2     1    24    1
     3     1     2    1
     4     1     3    2
     5    25    28    1
     6    25    24    1
     7    25    26    1
     8    25    27    2
     9     6    11    1
    10     6    12    1
    11    29    36    1
    12    29    37    1
    13     7     9    1
    14     7    13    1
    15     8    10    1
    16     8    14    1
    17     4     5    1
    18    28    36    1
    19    30    33    1
    20    30    38    1
    21    31    34    1
    22    31    39    1
    23    32    35    1
    24    32    40    1
    25    41    43   ar
    26    15    19    2
    27    42    43   ar
    28    16    22    2
    29    17    12    1
    30    17    19   ar
    31    17    20   ar
    32    18    19   ar
    33    18    22   ar
    34    18    23    1
    35     9    10    1
    36     9    11    1
    37    10    12    1
    38    11     5    1
    39    33    34    1
    40    33    35    1
    41    34    36    1
    42    35    37    1
    43    37    43    1
    44    20    21   ar
    45    21    22   ar
@<TRIPOS>MOLECULE
*****
 43 45 0 0 0
SMALL
GASTEIGER

@<TRIPOS>ATOM
      1 P          22.2801   72.9255   -1.9153 P.3     1  UNL1        0.2189
      2 O          22.8213   72.5408   -0.4395 O.co2   1  UNL1       -0.4371
      3 O          21.2521   74.0181   -1.9483 O.2     1  UNL1       -0.5170
      4 O          21.8182   71.5070   -2.5417 O.3     1  UNL1       -0.3112
      5 C          21.1035   71.5082   -3.7639 C.3     1  UNL1        0.1811
      6 O          18.9746   72.1343   -4.6878 O.3     1  UNL1       -0.3308
      7 O          17.7523   70.7705   -2.3134 O.3     1  UNL1       -0.3794
      8 O          17.4511   68.9136   -4.2875 O.3     1  UNL1       -0.3779
      9 C          18.9169   70.4152   -3.0592 C.3     1  UNL1        0.1713
     10 C          18.5229   69.8266   -4.3974 C.3     1  UNL1        0.1895
     11 C          19.6210   71.7007   -3.4715 C.3     1  UNL1        0.1764
     12 C          18.1545   71.0680   -5.1918 C.3     1  UNL1        0.2383
     13 H          17.2856   69.9652   -2.0390 H       1  UNL1        0.2105
     14 H          17.7359   68.1410   -3.7738 H       1  UNL1        0.2106
     15 O          16.2187   70.2288   -7.0692 O.2     1  UNL1       -0.2464
     16 O          19.2170   70.5073  -10.5588 O.2     1  UNL1       -0.2670
     17 N          18.4023   70.9127   -6.5973 N.ar    1  UNL1       -0.2551
     18 N          17.7142   70.3674   -8.8053 N.ar    1  UNL1       -0.2743
     19 C          17.3609   70.4854   -7.4546 C.ar    1  UNL1        0.3323
     20 C          19.6637   71.1839   -7.1133 C.ar    1  UNL1        0.0869
     21 C          19.9853   71.0668   -8.4031 C.ar    1  UNL1        0.0795
     22 C          18.9548   70.6249   -9.3656 C.ar    1  UNL1        0.2626
     23 H          17.0062   70.0694   -9.4212 H       1  UNL1        0.1734
     24 O          23.6394   73.2551   -2.7257 O.3     1  UNL1       -0.2703
     25 P          24.0633   74.5413   -3.6088 P.3     1  UNL1        0.2208
     26 O          23.6911   75.7891   -2.6471 O.co2   1  UNL1       -0.4371
     27 O          23.4237   74.5942   -4.9660 O.2     1  UNL1       -0.5170
     28 O          25.6760   74.5100   -3.6294 O.3     1  UNL1       -0.2858
     29 O          27.4157   75.7250   -2.5775 O.3     1  UNL1       -0.3226
     30 O          28.8407   75.3907   -6.4409 O.3     1  UNL1       -0.3794
     31 O          26.0276   76.0053   -5.9482 O.3     1  UNL1       -0.3775
     32 O          29.9492   73.7301   -4.3279 O.3     1  UNL1       -0.3792
     33 C          28.1224   74.9819   -5.2769 C.3     1  UNL1        0.1718
     34 C          27.0436   76.0154   -4.9521 C.3     1  UNL1        0.1968
     35 C          29.1188   74.8712   -4.1208 C.3     1  UNL1        0.1723
     36 C          26.4084   75.7335   -3.5898 C.3     1  UNL1        0.2706
     37 C          28.4036   74.7173   -2.7817 C.3     1  UNL1        0.1830
     38 H          28.2277   75.4678   -7.1889 H       1  UNL1        0.2105
     39 H          26.4237   76.1833   -6.8152 H       1  UNL1        0.2106
     40 H          30.4101   73.8154   -5.1771 H       1  UNL1        0.2106
     41 O          30.5612   75.3398   -2.1046 O.co2   1  UNL1       -0.5466
     42 O          29.0758   74.7870   -0.4655 O.co2   1  UNL1       -0.5466
     43 C          29.3492   74.9397   -1.6465 C.2     1  UNL1        0.0799
@<TRIPOS>UNITY_ATOM_ATTR
2 1
charge -1
26 1
charge -1
41 1
charge -1
@<TRIPOS>BOND
     1     1     4    1
     2     1    24    1
     3     1     2    1
     4     1     3    2
     5    25    28    1
     6    25    24    1
     7    25    26    1
     8    25    27    2
     9     6    11    1
    10     6    12    1
    11    29    36    1
    12    29    37    1
    13     7     9    1
    14     7    13    1
    15     8    10    1
    16     8    14    1
    17     4     5    1
    18    28    36    1
    19    30    33    1
    20    30    38    1
    21    31    34    1
    22    31    39    1
    23    32    35    1
    24    32    40    1
    25    41    43   ar
    26    15    19    2
    27    42    43   ar
    28    16    22    2
    29    17    12    1
    30    17    19   ar
    31    17    20   ar
    32    18    19   ar
    33    18    22   ar
    34    18    23    1
    35     9    10    1
    36     9    11    1
    37    10    12    1
    38    11     5    1
    39    33    34    1
    40    33    35    1
    41    34    36    1
    42    35    37    1
    43    37    43    1
    44    20    21   ar
    45    21    22   ar
@<TRIPOS>MOLECULE
*****
 43 45 0 0 0
SMALL
GASTEIGER

@<TRIPOS>ATOM
      1 P          22.2707   73.3802   -5.2886 P.3     1  UNL1        0.2189
      2 O          22.4936   74.9332   -5.6852 O.co2   1  UNL1       -0.4371
      3 O          23.4705   72.6983   -4.6993 O.2     1  UNL1       -0.5170
      4 O          21.6777   72.7155   -6.6394 O.3     1  UNL1       -0.3112
      5 C          20.6911   73.4255   -7.3654 C.3     1  UNL1        0.1811
      6 O          19.9425   71.1823   -7.7964 O.3     1  UNL1       -0.3308
      7 O          18.3811   72.3406  -10.0793 O.3     1  UNL1       -0.3794
      8 O          16.4762   72.0256   -8.1537 O.3     1  UNL1       -0.3779
      9 C          18.6526   72.9003   -8.7942 C.3     1  UNL1        0.1713
     10 C          17.8119   72.2169   -7.7366 C.3     1  UNL1        0.1895
     11 C          20.0634   72.4920   -8.3926 C.3     1  UNL1        0.1764
     12 C          18.5562   70.9073   -7.5396 C.3     1  UNL1        0.2383
     13 H          17.4848   72.5880  -10.3572 H       1  UNL1        0.2105
     14 H          16.0455   72.8882   -8.2648 H       1  UNL1        0.2106
     15 O          16.2991   69.4982   -6.5929 O.2     1  UNL1       -0.2464
     16 O          18.1468   68.9905   -2.4010 O.2     1  UNL1       -0.2670
     17 N          18.4211   70.3956   -6.2052 N.ar    1  UNL1       -0.2551
     18 N          17.2211   69.2476   -4.5057 N.ar    1  UNL1       -0.2743
     19 C          17.2461   69.7019   -5.8309 C.ar    1  UNL1        0.3323
     20 C          19.4451   70.5809   -5.2843 C.ar    1  UNL1        0.0869
     21 C          19.4069   70.1420   -4.0247 C.ar    1  UNL1        0.0795
     22 C          18.2142   69.4082   -3.5530 C.ar    1  UNL1        0.2626
     23 H          16.4123   68.7636   -4.2212 H       1  UNL1        0.1734
     24 O          20.9818   73.4357   -4.3148 O.3     1  UNL1       -0.2703
     25 P          20.8227   73.9587   -2.7933 P.3     1  UNL1        0.2208
     26 O          19.2272   74.1886   -2.6461 O.co2   1  UNL1       -0.4371
     27 O          21.6541   75.1654   -2.4669 O.2     1  UNL1       -0.5170
     28 O          21.1336   72.6649   -1.8812 O.3     1  UNL1       -0.2858
     29 O          22.9012   73.2457   -0.4159 O.3     1  UNL1       -0.3226
     30 O          22.1186   69.3496    0.7138 O.3     1  UNL1       -0.3794
     31 O          22.1639   70.0916   -2.1114 O.3     1  UNL1       -0.3775
     32 O          21.2214   71.5592    2.3762 O.3     1  UNL1       -0.3792
     33 C          21.8035   70.6520    0.2214 C.3     1  UNL1        0.1718
     34 C          22.6082   70.9274   -1.0490 C.3     1  UNL1        0.1968
     35 C          22.1610   71.6679    1.3086 C.3     1  UNL1        0.1723
     36 C          22.4733   72.3897   -1.4759 C.3     1  UNL1        0.2706
     37 C          22.1251   73.0955    0.7707 C.3     1  UNL1        0.1830
     38 H          21.8998   68.6872    0.0396 H       1  UNL1        0.2105
     39 H          22.2465   69.1622   -1.8473 H       1  UNL1        0.2106
     40 H          21.2343   70.6551    2.7275 H       1  UNL1        0.2106
     41 O          22.9416   75.2601    1.1571 O.co2   1  UNL1       -0.5466
     42 O          23.1334   73.7566    2.8606 O.co2   1  UNL1       -0.5466
     43 C          22.7839   74.0384    1.7242 C.2     1  UNL1        0.0799
@<TRIPOS>UNITY_ATOM_ATTR
2 1
charge -1
26 1
charge -1
41 1
charge -1
@<TRIPOS>BOND
     1     1     4    1
     2     1    24    1
     3     1     2    1
     4     1     3    2
     5    25    28    1
     6    25    24    1
     7    25    26    1
     8    25    27    2
     9     6    11    1
    10     6    12    1
    11    29    36    1
    12    29    37    1
    13     7     9    1
    14     7    13    1
    15     8    10    1
    16     8    14    1
    17     4     5    1
    18    28    36    1
    19    30    33    1
    20    30    38    1
    21    31    34    1
    22    31    39    1
    23    32    35    1
    24    32    40    1
    25    41    43   ar
    26    15    19    2
    27    42    43   ar
    28    16    22    2
    29    17    12    1
    30    17    19   ar
    31    17    20   ar
    32    18    19   ar
    33    18    22   ar
    34    18    23    1
    35     9    10    1
    36     9    11    1
    37    10    12    1
    38    11     5    1
    39    33    34    1
    40    33    35    1
    41    34    36    1
    42    35    37    1
    43    37    43    1
    44    20    21   ar
    45    21    22   ar
@<TRIPOS>MOLECULE
*****
 43 45 0 0 0
SMALL
GASTEIGER

@<TRIPOS>ATOM
      1 P          21.7745   74.8360   -7.1384 P.3     1  UNL1        0.2189
      2 O          20.9203   76.1334   -7.5921 O.co2   1  UNL1       -0.4371
      3 O          23.2002   75.1157   -6.7631 O.2     1  UNL1       -0.5170
      4 O          21.5601   73.7863   -8.3509 O.3     1  UNL1       -0.3112
      5 C          21.4818   72.4062   -8.0444 C.3     1  UNL1        0.1811
      6 O          19.8971   70.6093   -8.2378 O.3     1  UNL1       -0.3308
      7 O          18.6119   72.2246  -10.4128 O.3     1  UNL1       -0.3794
      8 O          16.9868   72.7029   -8.2759 O.3     1  UNL1       -0.3779
      9 C          19.2332   72.6668   -9.2057 C.3     1  UNL1        0.1713
     10 C          18.3374   72.3794   -8.0194 C.3     1  UNL1        0.1895
     11 C          20.4254   71.7602   -8.9317 C.3     1  UNL1        0.1764
     12 C          18.5533   70.8897   -7.8148 C.3     1  UNL1        0.2383
     13 H          17.8471   72.7889  -10.6087 H       1  UNL1        0.2105
     14 H          16.9018   73.6619   -8.3986 H       1  UNL1        0.2106
     15 O          16.1327   70.0001   -6.6632 O.2     1  UNL1       -0.2464
     16 O          18.0998   69.4128   -2.5365 O.2     1  UNL1       -0.2670
     17 N          18.4046   70.4980   -6.4417 N.ar    1  UNL1       -0.2551
     18 N          17.1145   69.7094   -4.6087 N.ar    1  UNL1       -0.2743
     19 C          17.1449   70.0665   -5.9632 C.ar    1  UNL1        0.3323
     20 C          19.4984   70.5417   -5.5857 C.ar    1  UNL1        0.0869
     21 C          19.4540   70.1980   -4.2970 C.ar    1  UNL1        0.0795
     22 C          18.1752   69.7368   -3.7178 C.ar    1  UNL1        0.2626
     23 H          16.2478   69.4077   -4.2521 H       1  UNL1        0.1734
     24 O          20.8764   74.2075   -5.9505 O.3     1  UNL1       -0.2703
     25 P          20.5046   74.7793   -4.4847 P.3     1  UNL1        0.2208
     26 O          18.8861   74.7998   -4.4953 O.co2   1  UNL1       -0.4371
     27 O          21.1378   76.1014   -4.1607 O.2     1  UNL1       -0.5170
     28 O          20.8900   73.5858   -3.4700 O.3     1  UNL1       -0.2858
     29 O          21.8301   73.4382   -1.3012 O.3     1  UNL1       -0.3226
     30 O          23.7720   70.3688   -3.2698 O.3     1  UNL1       -0.3794
     31 O          23.3548   72.9428   -4.5870 O.3     1  UNL1       -0.3775
     32 O          21.6287   69.7759   -1.3975 O.3     1  UNL1       -0.3792
     33 C          22.6879   71.2514   -2.9806 C.3     1  UNL1        0.1718
     34 C          23.1318   72.6974   -3.2032 C.3     1  UNL1        0.1968
     35 C          22.2811   71.0383   -1.5208 C.3     1  UNL1        0.1723
     36 C          22.0786   73.6787   -2.6868 C.3     1  UNL1        0.2706
     37 C          21.3269   72.1292   -1.0434 C.3     1  UNL1        0.1830
     38 H          24.0477   70.4865   -4.1926 H       1  UNL1        0.2105
     39 H          24.0218   72.3234   -4.9214 H       1  UNL1        0.2106
     40 H          22.2253   69.0728   -1.6983 H       1  UNL1        0.2106
     41 O          20.8229   73.3237    0.9113 O.co2   1  UNL1       -0.5466
     42 O          21.3972   71.1302    1.1517 O.co2   1  UNL1       -0.5466
     43 C          21.1974   72.1067    0.4449 C.2     1  UNL1        0.0799
@<TRIPOS>UNITY_ATOM_ATTR
2 1
charge -1
26 1
charge -1
41 1
charge -1
@<TRIPOS>BOND
     1     1     4    1
     2     1    24    1
     3     1     2    1
     4     1     3    2
     5    25    28    1
     6    25    24    1
     7    25    26    1
     8    25    27    2
     9     6    11    1
    10     6    12    1
    11    29    36    1
    12    29    37    1
    13     7     9    1
    14     7    13    1
    15     8    10    1
    16     8    14    1
    17     4     5    1
    18    28    36    1
    19    30    33    1
    20    30    38    1
    21    31    34    1
    22    31    39    1
    23    32    35    1
    24    32    40    1
    25    41    43   ar
    26    15    19    2
    27    42    43   ar
    28    16    22    2
    29    17    12    1
    30    17    19   ar
    31    17    20   ar
    32    18    19   ar
    33    18    22   ar
    34    18    23    1
    35     9    10    1
    36     9    11    1
    37    10    12    1
    38    11     5    1
    39    33    34    1
    40    33    35    1
    41    34    36    1
    42    35    37    1
    43    37    43    1
    44    20    21   ar
    45    21    22   ar
@<TRIPOS>MOLECULE
*****
 43 45 0 0 0
SMALL
GASTEIGER

@<TRIPOS>ATOM
      1 P          18.9948   70.1076   -3.2944 P.3     1  UNL1        0.2189
      2 O          18.1047   69.0320   -2.4760 O.co2   1  UNL1       -0.4371
      3 O          19.8177   69.5315   -4.4092 O.2     1  UNL1       -0.5170
      4 O          19.8206   70.8862   -2.1414 O.3     1  UNL1       -0.3112
      5 C          20.2715   72.2023   -2.4043 C.3     1  UNL1        0.1811
      6 O          22.3448   73.0991   -1.5826 O.3     1  UNL1       -0.3308
      7 O          23.6696   70.7651   -2.9200 O.3     1  UNL1       -0.3794
      8 O          23.5966   69.9914   -0.3061 O.3     1  UNL1       -0.3779
      9 C          22.4078   70.8287   -2.2549 C.3     1  UNL1        0.1713
     10 C          22.6082   70.8945   -0.7557 C.3     1  UNL1        0.1895
     11 C          21.7874   72.1868   -2.5533 C.3     1  UNL1        0.1764
     12 C          23.0075   72.3463   -0.5543 C.3     1  UNL1        0.2383
     13 H          24.0853   69.9060   -2.7440 H       1  UNL1        0.2105
     14 H          23.2950   69.0811   -0.4559 H       1  UNL1        0.2106
     15 O          21.3156   70.9740    1.2431 O.2     1  UNL1       -0.2464
     16 O          21.5319   74.3843    4.3362 O.2     1  UNL1       -0.2670
     17 N          22.6056   72.8525    0.7276 N.ar    1  UNL1       -0.2551
     18 N          21.4241   72.6742    2.7815 N.ar    1  UNL1       -0.2743
     19 C          21.7526   72.0836    1.5542 C.ar    1  UNL1        0.3323
     20 C          23.0563   74.0956    1.1548 C.ar    1  UNL1        0.0869
     21 C          22.7346   74.6454    2.3274 C.ar    1  UNL1        0.0795
     22 C          21.8469   73.9077    3.2500 C.ar    1  UNL1        0.2626
     23 H          20.8297   72.1587    3.3733 H       1  UNL1        0.1734
     24 O          17.9016   71.2030   -3.7611 O.3     1  UNL1       -0.2703
     25 P          16.9484   71.2623   -5.0656 P.3     1  UNL1        0.2208
     26 O          15.5700   71.8846   -4.4884 O.co2   1  UNL1       -0.4371
     27 O          16.7856   69.9463   -5.7696 O.2     1  UNL1       -0.5170
     28 O          17.5749   72.4364   -5.9773 O.3     1  UNL1       -0.2858
     29 O          19.3257   71.4599   -7.2384 O.3     1  UNL1       -0.3226
     30 O          19.3760   75.3573   -8.6078 O.3     1  UNL1       -0.3794
     31 O          19.0380   74.7920   -5.7617 O.3     1  UNL1       -0.3775
     32 O          18.2346   73.2480  -10.2507 O.3     1  UNL1       -0.3792
     33 C          18.7845   74.1650   -8.0916 C.3     1  UNL1        0.1718
     34 C          19.4112   73.8271   -6.7386 C.3     1  UNL1        0.1968
     35 C          19.0417   73.0373   -9.0937 C.3     1  UNL1        0.1723
     36 C          18.9724   72.4415   -6.2631 C.3     1  UNL1        0.2706
     37 C          18.6966   71.6748   -8.4998 C.3     1  UNL1        0.1830
     38 H          19.2253   76.0879   -7.9875 H       1  UNL1        0.2105
     39 H          19.3132   75.6737   -6.0570 H       1  UNL1        0.2106
     40 H          18.4444   74.1121  -10.6383 H       1  UNL1        0.2106
     41 O          20.1910   69.8741   -8.6602 O.co2   1  UNL1       -0.5466
     42 O          18.9075   70.3266  -10.4896 O.co2   1  UNL1       -0.5466
     43 C          19.2506   70.5728   -9.3430 C.2     1  UNL1        0.0799
@<TRIPOS>UNITY_ATOM_ATTR
2 1
charge -1
26 1
charge -1
41 1
charge -1
@<TRIPOS>BOND
     1     1     4    1
     2     1    24    1
     3     1     2    1
     4     1     3    2
     5    25    28    1
     6    25    24    1
     7    25    26    1
     8    25    27    2
     9     6    11    1
    10     6    12    1
    11    29    36    1
    12    29    37    1
    13     7     9    1
    14     7    13    1
    15     8    10    1
    16     8    14    1
    17     4     5    1
    18    28    36    1
    19    30    33    1
    20    30    38    1
    21    31    34    1
    22    31    39    1
    23    32    35    1
    24    32    40    1
    25    41    43   ar
    26    15    19    2
    27    42    43   ar
    28    16    22    2
    29    17    12    1
    30    17    19   ar
    31    17    20   ar
    32    18    19   ar
    33    18    22   ar
    34    18    23    1
    35     9    10    1
    36     9    11    1
    37    10    12    1
    38    11     5    1
    39    33    34    1
    40    33    35    1
    41    34    36    1
    42    35    37    1
    43    37    43    1
    44    20    21   ar
    45    21    22   ar
@<TRIPOS>MOLECULE
*****
 43 45 0 0 0
SMALL
GASTEIGER

@<TRIPOS>ATOM
      1 P          22.9259   74.1154   -4.1929 P.3     1  UNL1        0.2189
      2 O          24.3656   73.3767   -4.1674 O.co2   1  UNL1       -0.4371
      3 O          22.7596   75.1419   -5.2748 O.2     1  UNL1       -0.5170
      4 O          22.7386   74.6538   -2.6787 O.3     1  UNL1       -0.3112
      5 C          23.6381   75.6335   -2.1933 C.3     1  UNL1        0.1811
      6 O          22.1582   75.2630   -0.3358 O.3     1  UNL1       -0.3308
      7 O          23.6753   77.4363    1.0666 O.3     1  UNL1       -0.3794
      8 O          24.7323   75.1719    2.1582 O.3     1  UNL1       -0.3779
      9 C          24.1532   76.4379    0.1647 C.3     1  UNL1        0.1713
     10 C          24.2008   75.0899    0.8523 C.3     1  UNL1        0.1895
     11 C          23.0861   76.2158   -0.8985 C.3     1  UNL1        0.1764
     12 C          22.7384   74.6783    0.8410 C.3     1  UNL1        0.2383
     13 H          24.3403   77.5954    1.7551 H       1  UNL1        0.2105
     14 H          25.6648   75.4370    2.1116 H       1  UNL1        0.2106
     15 O          22.7753   72.9796    3.0970 O.2     1  UNL1       -0.2464
     16 O          22.0842   69.2276    0.5108 O.2     1  UNL1       -0.2670
     17 N          22.5706   73.2536    0.7858 N.ar    1  UNL1       -0.2551
     18 N          22.4320   71.1124    1.8067 N.ar    1  UNL1       -0.2743
     19 C          22.6057   72.4921    1.9778 C.ar    1  UNL1        0.3323
     20 C          22.3723   72.6255   -0.4377 C.ar    1  UNL1        0.0869
     21 C          22.2081   71.3094   -0.5850 C.ar    1  UNL1        0.0795
     22 C          22.2324   70.4417    0.6109 C.ar    1  UNL1        0.2626
     23 H          22.4547   70.5611    2.6221 H       1  UNL1        0.1734
     24 O          21.8858   72.8805   -4.2708 O.3     1  UNL1       -0.2703
     25 P          20.2813   72.8549   -4.4676 P.3     1  UNL1        0.2208
     26 O          19.8634   74.4099   -4.3006 O.co2   1  UNL1       -0.4371
     27 O          19.5620   71.9182   -3.5407 O.2     1  UNL1       -0.5170
     28 O          20.0663   72.5417   -6.0355 O.3     1  UNL1       -0.2858
     29 O          19.0514   70.4034   -5.9527 O.3     1  UNL1       -0.3226
     30 O          18.5799   71.4043   -9.9332 O.3     1  UNL1       -0.3794
     31 O          21.0942   71.9613   -8.5539 O.3     1  UNL1       -0.3775
     32 O          16.3173   71.5510   -8.1138 O.3     1  UNL1       -0.3792
     33 C          18.6881   71.6513   -8.5313 C.3     1  UNL1        0.1718
     34 C          20.0446   71.1575   -8.0278 C.3     1  UNL1        0.1968
     35 C          17.5543   70.9001   -7.8298 C.3     1  UNL1        0.1723
     36 C          20.1074   71.1937   -6.5002 C.3     1  UNL1        0.2706
     37 C          17.7556   70.8737   -6.3174 C.3     1  UNL1        0.1830
     38 H          19.2905   71.8718  -10.3999 H       1  UNL1        0.2105
     39 H          21.0602   71.9431   -9.5229 H       1  UNL1        0.2106
     40 H          16.1772   71.5746   -9.0733 H       1  UNL1        0.2106
     41 O          16.0690   69.2703   -6.6109 O.co2   1  UNL1       -0.5466
     42 O          16.8002   69.6330   -4.4818 O.co2   1  UNL1       -0.5466
     43 C          16.8447   69.8766   -5.6784 C.2     1  UNL1        0.0799
@<TRIPOS>UNITY_ATOM_ATTR
2 1
charge -1
26 1
charge -1
41 1
charge -1
@<TRIPOS>BOND
     1     1     4    1
     2     1    24    1
     3     1     2    1
     4     1     3    2
     5    25    28    1
     6    25    24    1
     7    25    26    1
     8    25    27    2
     9     6    11    1
    10     6    12    1
    11    29    36    1
    12    29    37    1
    13     7     9    1
    14     7    13    1
    15     8    10    1
    16     8    14    1
    17     4     5    1
    18    28    36    1
    19    30    33    1
    20    30    38    1
    21    31    34    1
    22    31    39    1
    23    32    35    1
    24    32    40    1
    25    41    43   ar
    26    15    19    2
    27    42    43   ar
    28    16    22    2
    29    17    12    1
    30    17    19   ar
    31    17    20   ar
    32    18    19   ar
    33    18    22   ar
    34    18    23    1
    35     9    10    1
    36     9    11    1
    37    10    12    1
    38    11     5    1
    39    33    34    1
    40    33    35    1
    41    34    36    1
    42    35    37    1
    43    37    43    1
    44    20    21   ar
    45    21    22   ar
@<TRIPOS>MOLECULE
*****
 43 45 0 0 0
SMALL
GASTEIGER

@<TRIPOS>ATOM
      1 P          19.8368   71.0045   -4.1897 P.3     1  UNL1        0.2189
      2 O          19.7470   69.3887   -4.1822 O.co2   1  UNL1       -0.4371
      3 O          18.7992   71.7006   -3.3587 O.2     1  UNL1       -0.5170
      4 O          19.8491   71.3856   -5.7622 O.3     1  UNL1       -0.3112
      5 C          18.7776   70.9414   -6.5740 C.3     1  UNL1        0.1811
      6 O          18.7575   73.3165   -6.9432 O.3     1  UNL1       -0.3308
      7 O          16.2040   72.8728   -8.4513 O.3     1  UNL1       -0.3794
      8 O          18.0407   73.1259  -10.4509 O.3     1  UNL1       -0.3779
      9 C          17.3661   72.0465   -8.3792 C.3     1  UNL1        0.1713
     10 C          18.4879   72.6469   -9.1999 C.3     1  UNL1        0.1895
     11 C          17.9215   72.1392   -6.9646 C.3     1  UNL1        0.1764
     12 C          18.9833   73.7589   -8.2911 C.3     1  UNL1        0.2383
     13 H          15.8313   72.8298   -9.3462 H       1  UNL1        0.2105
     14 H          17.7360   72.3804  -10.9925 H       1  UNL1        0.2106
     15 O          20.9160   71.7991   -8.9236 O.2     1  UNL1       -0.2464
     16 O          24.3236   74.9027   -8.9393 O.2     1  UNL1       -0.2670
     17 N          20.3826   74.0273   -8.4662 N.ar    1  UNL1       -0.2551
     18 N          22.6115   73.3466   -8.9298 N.ar    1  UNL1       -0.2743
     19 C          21.2696   72.9713   -8.7826 C.ar    1  UNL1        0.3323
     20 C          20.8630   75.3237   -8.3264 C.ar    1  UNL1        0.0869
     21 C          22.1448   75.6660   -8.4699 C.ar    1  UNL1        0.0795
     22 C          23.1370   74.6219   -8.7999 C.ar    1  UNL1        0.2626
     23 H          23.2483   72.6281   -9.1481 H       1  UNL1        0.1734
     24 O          21.3626   71.2853   -3.7358 O.3     1  UNL1       -0.2703
     25 P          22.2305   72.6491   -3.7171 P.3     1  UNL1        0.2208
     26 O          21.2280   73.7346   -4.3781 O.co2   1  UNL1       -0.4371
     27 O          23.5626   72.5407   -4.4011 O.2     1  UNL1       -0.5170
     28 O          22.3092   73.0628   -2.1598 O.3     1  UNL1       -0.2858
     29 O          21.1836   72.0858   -0.3193 O.3     1  UNL1       -0.3226
     30 O          21.5949   76.0024    0.9295 O.3     1  UNL1       -0.3794
     31 O          20.8365   75.3986   -1.8264 O.3     1  UNL1       -0.3775
     32 O          23.3076   73.9305    2.0362 O.3     1  UNL1       -0.3792
     33 C          21.9651   74.8091    0.2388 C.3     1  UNL1        0.1718
     34 C          20.8773   74.4443   -0.7717 C.3     1  UNL1        0.1968
     35 C          22.1253   73.6937    1.2742 C.3     1  UNL1        0.1723
     36 C          21.1248   73.0567   -1.3650 C.3     1  UNL1        0.2706
     37 C          22.2408   72.3264    0.6068 C.3     1  UNL1        0.1830
     38 H          21.4873   76.7253    0.2915 H       1  UNL1        0.2105
     39 H          20.6800   76.2815   -1.4571 H       1  UNL1        0.2106
     40 H          23.2469   74.7978    2.4661 H       1  UNL1        0.2106
     41 O          21.9569   70.0295    0.9883 O.co2   1  UNL1       -0.5466
     42 O          22.0275   71.3871    2.8189 O.co2   1  UNL1       -0.5466
     43 C          22.0658   71.2310    1.6076 C.2     1  UNL1        0.0799
@<TRIPOS>UNITY_ATOM_ATTR
2 1
charge -1
26 1
charge -1
41 1
charge -1
@<TRIPOS>BOND
     1     1     4    1
     2     1    24    1
     3     1     2    1
     4     1     3    2
     5    25    28    1
     6    25    24    1
     7    25    26    1
     8    25    27    2
     9     6    11    1
    10     6    12    1
    11    29    36    1
    12    29    37    1
    13     7     9    1
    14     7    13    1
    15     8    10    1
    16     8    14    1
    17     4     5    1
    18    28    36    1
    19    30    33    1
    20    30    38    1
    21    31    34    1
    22    31    39    1
    23    32    35    1
    24    32    40    1
    25    41    43   ar
    26    15    19    2
    27    42    43   ar
    28    16    22    2
    29    17    12    1
    30    17    19   ar
    31    17    20   ar
    32    18    19   ar
    33    18    22   ar
    34    18    23    1
    35     9    10    1
    36     9    11    1
    37    10    12    1
    38    11     5    1
    39    33    34    1
    40    33    35    1
    41    34    36    1
    42    35    37    1
    43    37    43    1
    44    20    21   ar
    45    21    22   ar
@<TRIPOS>MOLECULE
*****
 43 45 0 0 0
SMALL
GASTEIGER

@<TRIPOS>ATOM
      1 P          22.4611   73.1851   -4.1465 P.3     1  UNL1        0.2189
      2 O          23.8373   72.3531   -3.9662 O.co2   1  UNL1       -0.4371
      3 O          22.0553   74.0042   -2.9564 O.2     1  UNL1       -0.5170
      4 O          21.3930   72.0695   -4.6287 O.3     1  UNL1       -0.3112
      5 C          20.7914   71.2419   -3.6502 C.3     1  UNL1        0.1811
      6 O          18.8572   72.1550   -4.7469 O.3     1  UNL1       -0.3308
      7 O          17.2642   71.0267   -2.4707 O.3     1  UNL1       -0.3794
      8 O          16.8507   69.1985   -4.4514 O.3     1  UNL1       -0.3779
      9 C          18.4192   70.4921   -3.1178 C.3     1  UNL1        0.1713
     10 C          18.0502   69.9435   -4.4798 C.3     1  UNL1        0.1895
     11 C          19.3348   71.6537   -3.4796 C.3     1  UNL1        0.1764
     12 C          17.9319   71.2109   -5.3089 C.3     1  UNL1        0.2383
     13 H          16.6641   70.3031   -2.2300 H       1  UNL1        0.2105
     14 H          16.9775   68.4020   -3.9116 H       1  UNL1        0.2106
     15 O          16.0828   70.4152   -7.2899 O.2     1  UNL1       -0.2464
     16 O          19.3196   70.4166  -10.5711 O.2     1  UNL1       -0.2670
     17 N          18.2645   70.9961   -6.6888 N.ar    1  UNL1       -0.2551
     18 N          17.6969   70.4157   -8.9220 N.ar    1  UNL1       -0.2743
     19 C          17.2608   70.5972   -7.6030 C.ar    1  UNL1        0.3323
     20 C          19.5709   71.1818   -7.1245 C.ar    1  UNL1        0.0869
     21 C          19.9714   71.0050   -8.3851 C.ar    1  UNL1        0.0795
     22 C          18.9848   70.5875   -9.4028 C.ar    1  UNL1        0.2626
     23 H          17.0164   70.1359   -9.5763 H       1  UNL1        0.1734
     24 O          22.7272   74.0393   -5.4927 O.3     1  UNL1       -0.2703
     25 P          23.1859   75.5754   -5.7018 P.3     1  UNL1        0.2208
     26 O          24.5853   75.6569   -4.8923 O.co2   1  UNL1       -0.4371
     27 O          22.1633   76.5873   -5.2726 O.2     1  UNL1       -0.5170
     28 O          23.6085   75.6684   -7.2559 O.3     1  UNL1       -0.2858
     29 O          22.5940   76.7430   -9.1067 O.3     1  UNL1       -0.3226
     30 O          24.1622   73.3477  -10.8619 O.3     1  UNL1       -0.3794
     31 O          22.8359   73.1937   -8.2635 O.3     1  UNL1       -0.3775
     32 O          25.4659   75.9190  -11.2363 O.3     1  UNL1       -0.3792
     33 C          24.1065   74.4233   -9.9248 C.3     1  UNL1        0.1718
     34 C          22.8116   74.3318   -9.1172 C.3     1  UNL1        0.1968
     35 C          24.1532   75.7366  -10.7089 C.3     1  UNL1        0.1723
     36 C          22.6066   75.5871   -8.2681 C.3     1  UNL1        0.2706
     37 C          23.8151   76.9291   -9.8189 C.3     1  UNL1        0.1830
     38 H          24.1338   72.5025  -10.3864 H       1  UNL1        0.2105
     39 H          22.9659   72.3936   -8.7957 H       1  UNL1        0.2106
     40 H          25.6935   75.1665  -11.8046 H       1  UNL1        0.2106
     41 O          23.0032   79.1288   -9.8799 O.co2   1  UNL1       -0.5466
     42 O          23.7690   78.2481  -11.8387 O.co2   1  UNL1       -0.5466
     43 C          23.5409   78.1450  -10.6428 C.2     1  UNL1        0.0799
@<TRIPOS>UNITY_ATOM_ATTR
2 1
charge -1
26 1
charge -1
41 1
charge -1
@<TRIPOS>BOND
     1     1     4    1
     2     1    24    1
     3     1     2    1
     4     1     3    2
     5    25    28    1
     6    25    24    1
     7    25    26    1
     8    25    27    2
     9     6    11    1
    10     6    12    1
    11    29    36    1
    12    29    37    1
    13     7     9    1
    14     7    13    1
    15     8    10    1
    16     8    14    1
    17     4     5    1
    18    28    36    1
    19    30    33    1
    20    30    38    1
    21    31    34    1
    22    31    39    1
    23    32    35    1
    24    32    40    1
    25    41    43   ar
    26    15    19    2
    27    42    43   ar
    28    16    22    2
    29    17    12    1
    30    17    19   ar
    31    17    20   ar
    32    18    19   ar
    33    18    22   ar
    34    18    23    1
    35     9    10    1
    36     9    11    1
    37    10    12    1
    38    11     5    1
    39    33    34    1
    40    33    35    1
    41    34    36    1
    42    35    37    1
    43    37    43    1
    44    20    21   ar
    45    21    22   ar
@<TRIPOS>MOLECULE
*****
 43 45 0 0 0
SMALL
GASTEIGER

@<TRIPOS>ATOM
      1 P          22.3679   73.1759   -4.3592 P.3     1  UNL1        0.2189
      2 O          23.8071   72.4888   -4.0845 O.co2   1  UNL1       -0.4371
      3 O          21.8697   74.0648   -3.2576 O.2     1  UNL1       -0.5170
      4 O          21.4098   71.9302   -4.7443 O.3     1  UNL1       -0.3112
      5 C          20.8273   71.1762   -3.6970 C.3     1  UNL1        0.1811
      6 O          18.8956   72.0963   -4.7924 O.3     1  UNL1       -0.3308
      7 O          17.3076   71.0241   -2.4858 O.3     1  UNL1       -0.3794
      8 O          16.8549   69.1704   -4.4338 O.3     1  UNL1       -0.3779
      9 C          18.4505   70.4649   -3.1337 C.3     1  UNL1        0.1713
     10 C          18.0633   69.8996   -4.4838 C.3     1  UNL1        0.1895
     11 C          19.3774   71.6090   -3.5213 C.3     1  UNL1        0.1764
     12 C          17.9540   71.1552   -5.3319 C.3     1  UNL1        0.2383
     13 H          16.7006   70.3120   -2.2288 H       1  UNL1        0.2105
     14 H          16.9762   68.3809   -3.8825 H       1  UNL1        0.2106
     15 O          16.0443   70.5901   -7.3344 O.2     1  UNL1       -0.2464
     16 O          19.2897   70.2484  -10.5894 O.2     1  UNL1       -0.2670
     17 N          18.2724   70.9145   -6.7109 N.ar    1  UNL1       -0.2551
     18 N          17.6626   70.4194   -8.9535 N.ar    1  UNL1       -0.2743
     19 C          17.2382   70.6393   -7.6364 C.ar    1  UNL1        0.3323
     20 C          19.5953   70.9539   -7.1343 C.ar    1  UNL1        0.0869
     21 C          19.9844   70.7423   -8.3931 C.ar    1  UNL1        0.0795
     22 C          18.9661   70.4474   -9.4224 C.ar    1  UNL1        0.2626
     23 H          16.9607   70.2239   -9.6156 H       1  UNL1        0.1734
     24 O          22.5854   73.9192   -5.7780 O.3     1  UNL1       -0.2703
     25 P          21.9726   75.2978   -6.3589 P.3     1  UNL1        0.2208
     26 O          22.5727   75.3654   -7.8608 O.co2   1  UNL1       -0.4371
     27 O          22.2703   76.5062   -5.5191 O.2     1  UNL1       -0.5170
     28 O          20.4013   74.9940   -6.5616 O.3     1  UNL1       -0.2858
     29 O          18.8443   75.3769   -8.3046 O.3     1  UNL1       -0.3226
     30 O          16.5822   76.2296   -4.9544 O.3     1  UNL1       -0.3794
     31 O          19.3503   77.1440   -5.1443 O.3     1  UNL1       -0.3775
     32 O          16.1923   73.7262   -6.3799 O.3     1  UNL1       -0.3792
     33 C          17.5968   75.5647   -5.7071 C.3     1  UNL1        0.1718
     34 C          18.6061   76.5905   -6.2234 C.3     1  UNL1        0.1968
     35 C          16.9224   74.8458   -6.8778 C.3     1  UNL1        0.1723
     36 C          19.5743   75.9516   -7.2201 C.3     1  UNL1        0.2706
     37 C          17.9487   74.3473   -7.8911 C.3     1  UNL1        0.1830
     38 H          16.9873   76.6937   -4.2048 H       1  UNL1        0.2105
     39 H          18.7422   77.5509   -4.5078 H       1  UNL1        0.2106
     40 H          15.5357   74.0298   -5.7337 H       1  UNL1        0.2106
     41 O          18.1935   73.4763  -10.0551 O.co2   1  UNL1       -0.5466
     42 O          16.0844   74.0315   -9.3897 O.co2   1  UNL1       -0.5466
     43 C          17.2831   73.9488   -9.1680 C.2     1  UNL1        0.0799
@<TRIPOS>UNITY_ATOM_ATTR
2 1
charge -1
26 1
charge -1
41 1
charge -1
@<TRIPOS>BOND
     1     1     4    1
     2     1    24    1
     3     1     2    1
     4     1     3    2
     5    25    28    1
     6    25    24    1
     7    25    26    1
     8    25    27    2
     9     6    11    1
    10     6    12    1
    11    29    36    1
    12    29    37    1
    13     7     9    1
    14     7    13    1
    15     8    10    1
    16     8    14    1
    17     4     5    1
    18    28    36    1
    19    30    33    1
    20    30    38    1
    21    31    34    1
    22    31    39    1
    23    32    35    1
    24    32    40    1
    25    41    43   ar
    26    15    19    2
    27    42    43   ar
    28    16    22    2
    29    17    12    1
    30    17    19   ar
    31    17    20   ar
    32    18    19   ar
    33    18    22   ar
    34    18    23    1
    35     9    10    1
    36     9    11    1
    37    10    12    1
    38    11     5    1
    39    33    34    1
    40    33    35    1
    41    34    36    1
    42    35    37    1
    43    37    43    1
    44    20    21   ar
    45    21    22   ar
@<TRIPOS>MOLECULE
*****
 43 45 0 0 0
SMALL
GASTEIGER

@<TRIPOS>ATOM
      1 P          21.0176   70.5895   -1.7618 P.3     1  UNL1        0.2189
      2 O          22.5830   70.4733   -2.1553 O.co2   1  UNL1       -0.4371
      3 O          20.3451   71.8555   -2.2052 O.2     1  UNL1       -0.5170
      4 O          20.9949   70.3023   -0.1697 O.3     1  UNL1       -0.3112
      5 C          21.7194   71.1687    0.6841 C.3     1  UNL1        0.1811
      6 O          20.8049   73.3266    1.2179 O.3     1  UNL1       -0.3308
      7 O          22.6318   74.4171   -0.8951 O.3     1  UNL1       -0.3794
      8 O          23.9621   75.0146    1.4090 O.3     1  UNL1       -0.3779
      9 C          22.8525   73.3498    0.0272 C.3     1  UNL1        0.1713
     10 C          23.0952   73.8998    1.4168 C.3     1  UNL1        0.1895
     11 C          21.5375   72.6033    0.2052 C.3     1  UNL1        0.1764
     12 C          21.6881   74.2563    1.8651 C.3     1  UNL1        0.2383
     13 H          23.4582   74.9088   -1.0250 H       1  UNL1        0.2105
     14 H          24.8447   74.7358    1.1170 H       1  UNL1        0.2106
     15 O          22.4655   72.0119    3.3930 O.2     1  UNL1       -0.2464
     16 O          21.0005   73.9440    7.3127 O.2     1  UNL1       -0.2670
     17 N          21.5215   74.1463    3.2867 N.ar    1  UNL1       -0.2551
     18 N          21.7342   72.9759    5.3437 N.ar    1  UNL1       -0.2743
     19 C          21.9458   72.9756    3.9586 C.ar    1  UNL1        0.3323
     20 C          20.9455   75.1903    4.0003 C.ar    1  UNL1        0.0869
     21 C          20.7504   75.1761    5.3204 C.ar    1  UNL1        0.0795
     22 C          21.1649   73.9895    6.0974 C.ar    1  UNL1        0.2626
     23 H          22.0196   72.1706    5.8329 H       1  UNL1        0.1734
     24 O          20.3858   69.2379   -2.3839 O.3     1  UNL1       -0.2703
     25 P          19.1254   69.0120   -3.3709 P.3     1  UNL1        0.2208
     26 O          17.9549   69.8941   -2.6839 O.co2   1  UNL1       -0.4371
     27 O          18.7658   67.5710   -3.5904 O.2     1  UNL1       -0.5170
     28 O          19.5079   69.8187   -4.7145 O.3     1  UNL1       -0.2858
     29 O          19.9030   72.0605   -5.3682 O.3     1  UNL1       -0.3226
     30 O          17.4142   70.7310   -8.3858 O.3     1  UNL1       -0.3794
     31 O          16.8801   70.0178   -5.6037 O.3     1  UNL1       -0.3775
     32 O          20.2635   71.0383   -8.8735 O.3     1  UNL1       -0.3792
     33 C          18.4208   70.6139   -7.3804 C.3     1  UNL1        0.1718
     34 C          17.8320   70.9898   -6.0204 C.3     1  UNL1        0.1968
     35 C          19.5658   71.5616   -7.7449 C.3     1  UNL1        0.1723
     36 C          18.9290   71.0990   -4.9605 C.3     1  UNL1        0.2706
     37 C          20.5514   71.7145   -6.5901 C.3     1  UNL1        0.1830
     38 H          16.6760   70.1377   -8.1753 H       1  UNL1        0.2105
     39 H          16.1811   69.9431   -6.2717 H       1  UNL1        0.2106
     40 H          19.6473   70.9359   -9.6156 H       1  UNL1        0.2106
     41 O          22.5582   72.7885   -6.0233 O.co2   1  UNL1       -0.5466
     42 O          21.2680   73.7729   -7.6250 O.co2   1  UNL1       -0.5466
     43 C          21.4667   72.8722   -6.8236 C.2     1  UNL1        0.0799
@<TRIPOS>UNITY_ATOM_ATTR
2 1
charge -1
26 1
charge -1
41 1
charge -1
@<TRIPOS>BOND
     1     1     4    1
     2     1    24    1
     3     1     2    1
     4     1     3    2
     5    25    28    1
     6    25    24    1
     7    25    26    1
     8    25    27    2
     9     6    11    1
    10     6    12    1
    11    29    36    1
    12    29    37    1
    13     7     9    1
    14     7    13    1
    15     8    10    1
    16     8    14    1
    17     4     5    1
    18    28    36    1
    19    30    33    1
    20    30    38    1
    21    31    34    1
    22    31    39    1
    23    32    35    1
    24    32    40    1
    25    41    43   ar
    26    15    19    2
    27    42    43   ar
    28    16    22    2
    29    17    12    1
    30    17    19   ar
    31    17    20   ar
    32    18    19   ar
    33    18    22   ar
    34    18    23    1
    35     9    10    1
    36     9    11    1
    37    10    12    1
    38    11     5    1
    39    33    34    1
    40    33    35    1
    41    34    36    1
    42    35    37    1
    43    37    43    1
    44    20    21   ar
    45    21    22   ar
@<TRIPOS>MOLECULE
*****
 43 45 0 0 0
SMALL
GASTEIGER

@<TRIPOS>ATOM
      1 P          22.7834   73.4876   -5.1083 P.3     1  UNL1        0.2189
      2 O          23.2053   75.0055   -5.4784 O.co2   1  UNL1       -0.4371
      3 O          23.7424   72.7651   -4.2082 O.2     1  UNL1       -0.5170
      4 O          22.5141   72.7975   -6.5467 O.3     1  UNL1       -0.3112
      5 C          21.2593   73.0013   -7.1701 C.3     1  UNL1        0.1811
      6 O          19.1974   71.7941   -6.9078 O.3     1  UNL1       -0.3308
      7 O          20.3550   69.7752   -8.7988 O.3     1  UNL1       -0.3794
      8 O          18.6808   71.2063  -10.4066 O.3     1  UNL1       -0.3779
      9 C          20.5000   71.1956   -8.7935 C.3     1  UNL1        0.1713
     10 C          19.2252   71.8545   -9.2761 C.3     1  UNL1        0.1895
     11 C          20.5672   71.6555   -7.3435 C.3     1  UNL1        0.1764
     12 C          18.3312   71.7458   -8.0527 C.3     1  UNL1        0.2383
     13 H          20.3098   69.4579   -9.7147 H       1  UNL1        0.2105
     14 H          19.2866   71.3043  -11.1585 H       1  UNL1        0.2106
     15 O          15.9316   71.6463   -6.5666 O.2     1  UNL1       -0.2464
     16 O          14.7761   75.9344   -7.7999 O.2     1  UNL1       -0.2670
     17 N          17.3850   72.8220   -7.9680 N.ar    1  UNL1       -0.2551
     18 N          15.3579   73.7818   -7.1831 N.ar    1  UNL1       -0.2743
     19 C          16.2102   72.6698   -7.1942 C.ar    1  UNL1        0.3323
     20 C          17.6253   74.0117   -8.6447 C.ar    1  UNL1        0.0869
     21 C          16.8036   75.0629   -8.6245 C.ar    1  UNL1        0.0795
     22 C          15.5536   74.9857   -7.8403 C.ar    1  UNL1        0.2626
     23 H          14.5325   73.6988   -6.6528 H       1  UNL1        0.1734
     24 O          21.2942   73.6619   -4.5043 O.3     1  UNL1       -0.2703
     25 P          20.4202   72.7014   -3.5413 P.3     1  UNL1        0.2208
     26 O          21.0098   71.2271   -3.8559 O.co2   1  UNL1       -0.4371
     27 O          18.9360   72.8270   -3.7293 O.2     1  UNL1       -0.5170
     28 O          20.9370   73.0371   -2.0504 O.3     1  UNL1       -0.2858
     29 O          20.7036   71.6196   -0.1674 O.3     1  UNL1       -0.3226
     30 O          20.9622   75.3409    1.6084 O.3     1  UNL1       -0.3794
     31 O          19.3599   74.9596   -0.8044 O.3     1  UNL1       -0.3775
     32 O          23.2401   73.5357    1.6648 O.3     1  UNL1       -0.3792
     33 C          21.2285   74.3486    0.6172 C.3     1  UNL1        0.1718
     34 C          19.9156   73.9045   -0.0281 C.3     1  UNL1        0.1968
     35 C          21.9108   73.1641    1.3052 C.3     1  UNL1        0.1723
     36 C          20.1321   72.6859   -0.9264 C.3     1  UNL1        0.2706
     37 C          21.9761   71.9480    0.3858 C.3     1  UNL1        0.1830
     38 H          20.5285   76.1036    1.1943 H       1  UNL1        0.2105
     39 H          19.2201   75.7362   -0.2408 H       1  UNL1        0.2106
     40 H          23.2127   74.3088    2.2499 H       1  UNL1        0.2106
     41 O          21.7528   69.6236    0.6076 O.co2   1  UNL1       -0.5466
     42 O          23.0527   70.6950    2.1444 O.co2   1  UNL1       -0.5466
     43 C          22.3341   70.7190    1.1564 C.2     1  UNL1        0.0799
@<TRIPOS>UNITY_ATOM_ATTR
2 1
charge -1
26 1
charge -1
41 1
charge -1
@<TRIPOS>BOND
     1     1     4    1
     2     1    24    1
     3     1     2    1
     4     1     3    2
     5    25    28    1
     6    25    24    1
     7    25    26    1
     8    25    27    2
     9     6    11    1
    10     6    12    1
    11    29    36    1
    12    29    37    1
    13     7     9    1
    14     7    13    1
    15     8    10    1
    16     8    14    1
    17     4     5    1
    18    28    36    1
    19    30    33    1
    20    30    38    1
    21    31    34    1
    22    31    39    1
    23    32    35    1
    24    32    40    1
    25    41    43   ar
    26    15    19    2
    27    42    43   ar
    28    16    22    2
    29    17    12    1
    30    17    19   ar
    31    17    20   ar
    32    18    19   ar
    33    18    22   ar
    34    18    23    1
    35     9    10    1
    36     9    11    1
    37    10    12    1
    38    11     5    1
    39    33    34    1
    40    33    35    1
    41    34    36    1
    42    35    37    1
    43    37    43    1
    44    20    21   ar
    45    21    22   ar
