@<TRIPOS>MOLECULE
UD2
 46 48 0 0 0
SMALL
GASTEIGER

@<TRIPOS>ATOM
      1 P          20.5109   71.1222   -2.8546 P.3     1  UNL1        0.2189
      2 O          20.7176   69.7878   -3.7309 O.3     1  UNL1       -0.4371
      3 O          21.5960   72.0825   -3.1535 O.2     1  UNL1       -0.5170
      4 O          19.0900   71.7878   -3.2177 O.3     1  UNL1       -0.3112
      5 C          17.8788   71.4538   -2.5373 C.3     1  UNL1        0.1811
      6 C          16.7123   70.5106   -5.8062 C.3     1  UNL1        0.2383
      7 C          16.9464   69.1655   -5.0729 C.3     1  UNL1        0.1895
      8 O          16.0400   68.1649   -5.5408 O.3     1  UNL1       -0.3779
      9 C          16.6438   69.5403   -3.6014 C.3     1  UNL1        0.1713
     10 C          16.8075   71.0717   -3.5616 C.3     1  UNL1        0.1764
     11 O          17.2134   71.4928   -4.8736 O.3     1  UNL1       -0.3308
     12 O          15.3076   69.1705   -3.2570 O.3     1  UNL1       -0.3794
     13 H          16.1476   67.3050   -5.1123 H       1  UNL1        0.2106
     14 H          15.1319   68.2222   -3.3223 H       1  UNL1        0.2105
     15 N          17.4703   70.5541   -7.0587 N.ar    1  UNL1       -0.2551
     16 C          16.8157   70.6115   -8.2321 C.ar    1  UNL1        0.3323
     17 N          17.4867   70.6522   -9.3985 N.ar    1  UNL1       -0.2743
     18 C          18.8352   70.6377   -9.4066 C.ar    1  UNL1        0.2626
     19 C          19.5371   70.5784   -8.1786 C.ar    1  UNL1        0.0795
     20 C          18.8388   70.5428   -7.0242 C.ar    1  UNL1        0.0869
     21 O          15.5999   70.6254   -8.2399 O.2     1  UNL1       -0.2464
     22 O          19.4437   70.6749  -10.4615 O.2     1  UNL1       -0.2670
     23 H          16.9991   70.6922  -10.2356 H       1  UNL1        0.1734
     24 O          20.5423   70.7466   -1.2889 O.3     1  UNL1       -0.2703
     25 P          21.4799   71.1806   -0.0539 P.3     1  UNL1        0.2208
     26 O          21.5990   69.9558    0.9851 O.3     1  UNL1       -0.4371
     27 O          22.8259   71.5333   -0.5561 O.2     1  UNL1       -0.5170
     28 O          20.8332   72.4543    0.6892 O.3     1  UNL1       -0.2865
     29 C          21.5877   73.6144    1.0443 C.3     1  UNL1        0.2611
     30 C          22.2499   73.3961    2.4069 C.3     1  UNL1        0.1582
     31 C          21.1625   73.2056    3.4688 C.3     1  UNL1        0.1625
     32 C          20.2377   74.4258    3.4617 C.3     1  UNL1        0.1686
     33 C          19.6528   74.6043    2.0581 C.3     1  UNL1        0.1760
     34 O          21.7702   73.0744    4.7559 O.3     1  UNL1       -0.3801
     35 O          20.9818   75.5912    3.8213 O.3     1  UNL1       -0.3794
     36 O          20.7169   74.7453    1.1148 O.3     1  UNL1       -0.3263
     37 H          21.1388   72.9496    5.4776 H       1  UNL1        0.2105
     38 H          20.4576   76.4042    3.8366 H       1  UNL1        0.2105
     39 C          24.4350   72.3191    2.4633 C.2     1  UNL1        0.2231
     40 C          25.3065   71.0919    2.4088 C.3     1  UNL1        0.0946
     41 N          23.0970   72.2019    2.3536 N.am    1  UNL1       -0.2994
     42 O          24.9375   73.4143    2.6059 O.2     1  UNL1       -0.2751
     43 H          22.6949   71.3266    2.2385 H       1  UNL1        0.1496
     44 C          18.7743   75.8564    2.0274 C.3     1  UNL1        0.1693
     45 O          18.3469   76.1720    3.3540 O.3     1  UNL1       -0.3794
     46 H          17.7846   76.9566    3.4105 H       1  UNL1        0.2105
@<TRIPOS>BOND
     1    29    30    1
     2    30    41    1
     3    30    31    1
     4    31    34    1
     5    31    32    1
     6    32    35    1
     7    32    33    1
     8    33    36    1
     9    33    44    1
    10    39    40    1
    11    39    42    2
    12    39    41   am
    13    41    43    1
    14    29    28    1
    15    34    37    1
    16    35    38    1
    17    29    36    1
    18    44    45    1
    19    45    46    1
    20    15     6    1
    21    15    16   ar
    22    16    21    2
    23    16    17   ar
    24    17    23    1
    25    17    18   ar
    26    18    19   ar
    27    19    20   ar
    28    15    20   ar
    29    18    22    2
    30     6     7    1
    31     6    11    1
    32     7     9    1
    33     7     8    1
    34     8    13    1
    35     9    10    1
    36     9    12    1
    37    10     5    1
    38    10    11    1
    39    12    14    1
    40     5     4    1
    41     4     1    1
    42     1     2    1
    43     1    24    1
    44     1     3    2
    45    24    25    1
    46    28    25    1
    47    25    26    1
    48    25    27    2
@<TRIPOS>MOLECULE
UD2
 46 48 0 0 0
SMALL
GASTEIGER

@<TRIPOS>ATOM
      1 P          22.5724   71.2762   -2.9013 P.3     1  UNL1        0.2189
      2 O          21.6842   69.9693   -3.2089 O.3     1  UNL1       -0.4371
      3 O          24.0008   70.9683   -3.1333 O.2     1  UNL1       -0.5170
      4 O          22.1169   72.4757   -3.8745 O.3     1  UNL1       -0.3112
      5 C          22.8328   72.8299   -5.0592 C.3     1  UNL1        0.1811
      6 C          19.8218   71.8062   -6.7391 C.3     1  UNL1        0.2383
      7 C          19.5429   73.2642   -6.2933 C.3     1  UNL1        0.1895
      8 O          18.6580   73.9163   -7.2062 O.3     1  UNL1       -0.3779
      9 C          20.9554   73.8963   -6.3464 C.3     1  UNL1        0.1713
     10 C          21.9108   72.6900   -6.2729 C.3     1  UNL1        0.1764
     11 O          21.1015   71.5108   -6.1386 O.3     1  UNL1       -0.3308
     12 O          21.1385   74.6060   -7.5726 O.3     1  UNL1       -0.3794
     13 H          18.4526   74.8309   -6.9699 H       1  UNL1        0.2106
     14 H          20.5230   75.3407   -7.6984 H       1  UNL1        0.2105
     15 N          18.7895   70.9033   -6.2251 N.ar    1  UNL1       -0.2551
     16 C          17.8808   70.3813   -7.0681 C.ar    1  UNL1        0.3323
     17 N          16.9209   69.5489   -6.6233 N.ar    1  UNL1       -0.2743
     18 C          16.8576   69.2227   -5.3163 C.ar    1  UNL1        0.2626
     19 C          17.8084   69.7641   -4.4179 C.ar    1  UNL1        0.0795
     20 C          18.7623   70.5927   -4.8921 C.ar    1  UNL1        0.0869
     21 O          17.9260   70.6665   -8.2492 O.2     1  UNL1       -0.2464
     22 O          15.9896   68.4691   -4.9125 O.2     1  UNL1       -0.2670
     23 H          16.2729   69.1824   -7.2444 H       1  UNL1        0.1734
     24 O          22.3609   71.7204   -1.3679 O.3     1  UNL1       -0.2703
     25 P          21.1002   71.7148   -0.3661 P.3     1  UNL1        0.2208
     26 O          19.7632   72.0835   -1.1849 O.3     1  UNL1       -0.4371
     27 O          20.9544   70.3716    0.2363 O.2     1  UNL1       -0.5170
     28 O          21.3347   72.8028    0.7975 O.3     1  UNL1       -0.2865
     29 C          21.3601   72.4649    2.1855 C.3     1  UNL1        0.2611
     30 C          21.2699   73.7421    3.0242 C.3     1  UNL1        0.1582
     31 C          22.4926   74.6189    2.7365 C.3     1  UNL1        0.1625
     32 C          23.7631   73.8178    3.0336 C.3     1  UNL1        0.1686
     33 C          23.7572   72.5374    2.1942 C.3     1  UNL1        0.1760
     34 O          22.4540   75.7797    3.5698 O.3     1  UNL1       -0.3801
     35 O          23.8011   73.4796    4.4212 O.3     1  UNL1       -0.3794
     36 O          22.5793   71.7832    2.4871 O.3     1  UNL1       -0.3263
     37 H          23.1997   76.3816    3.4398 H       1  UNL1        0.2105
     38 H          24.5809   72.9694    4.6812 H       1  UNL1        0.2105
     39 C          19.0509   74.5877    3.5705 C.2     1  UNL1        0.2231
     40 C          17.7962   75.3391    3.2104 C.3     1  UNL1        0.0946
     41 N          20.0497   74.4730    2.6731 N.am    1  UNL1       -0.2994
     42 O          19.1629   74.0851    4.6691 O.2     1  UNL1       -0.2751
     43 H          19.9601   74.8738    1.7943 H       1  UNL1        0.1496
     44 C          24.9944   71.7024    2.5294 C.3     1  UNL1        0.1693
     45 O          24.7253   70.3238    2.2656 O.3     1  UNL1       -0.3794
     46 H          25.4677   69.7342    2.4559 H       1  UNL1        0.2105
@<TRIPOS>BOND
     1    29    30    1
     2    30    41    1
     3    30    31    1
     4    31    34    1
     5    31    32    1
     6    32    35    1
     7    32    33    1
     8    33    36    1
     9    33    44    1
    10    39    40    1
    11    39    42    2
    12    39    41   am
    13    41    43    1
    14    29    28    1
    15    34    37    1
    16    35    38    1
    17    29    36    1
    18    44    45    1
    19    45    46    1
    20    15     6    1
    21    15    16   ar
    22    16    21    2
    23    16    17   ar
    24    17    23    1
    25    17    18   ar
    26    18    19   ar
    27    19    20   ar
    28    15    20   ar
    29    18    22    2
    30     6     7    1
    31     6    11    1
    32     7     9    1
    33     7     8    1
    34     8    13    1
    35     9    10    1
    36     9    12    1
    37    10     5    1
    38    10    11    1
    39    12    14    1
    40     5     4    1
    41     4     1    1
    42     1     2    1
    43     1    24    1
    44     1     3    2
    45    24    25    1
    46    28    25    1
    47    25    26    1
    48    25    27    2
@<TRIPOS>MOLECULE
UD2
 46 48 0 0 0
SMALL
GASTEIGER

@<TRIPOS>ATOM
      1 P          20.3891   71.1042   -2.6277 P.3     1  UNL1        0.2189
      2 O          19.5536   70.0676   -1.7227 O.3     1  UNL1       -0.4371
      3 O          21.1393   70.3617   -3.6643 O.2     1  UNL1       -0.5170
      4 O          19.3755   72.1369   -3.3348 O.3     1  UNL1       -0.3112
      5 C          18.1090   72.4891   -2.7751 C.3     1  UNL1        0.1811
      6 C          16.8073   71.1759   -5.8602 C.3     1  UNL1        0.2383
      7 C          16.9756   69.9341   -4.9483 C.3     1  UNL1        0.1895
      8 O          15.9980   68.9386   -5.2565 O.3     1  UNL1       -0.3779
      9 C          16.7326   70.5294   -3.5398 C.3     1  UNL1        0.1713
     10 C          16.9915   72.0376   -3.7187 C.3     1  UNL1        0.1764
     11 O          17.3906   72.2443   -5.0830 O.3     1  UNL1       -0.3308
     12 O          15.3849   70.2984   -3.1263 O.3     1  UNL1       -0.3794
     13 H          16.0627   68.1418   -4.7129 H       1  UNL1        0.2106
     14 H          15.1494   69.3636   -3.0545 H       1  UNL1        0.2105
     15 N          17.5358   70.9950   -7.1178 N.ar    1  UNL1       -0.2551
     16 C          16.8722   70.6127   -8.2233 C.ar    1  UNL1        0.3323
     17 N          17.5163   70.4386   -9.3925 N.ar    1  UNL1       -0.2743
     18 C          18.8460   70.6485   -9.4727 C.ar    1  UNL1        0.2626
     19 C          19.5569   71.0522   -8.3170 C.ar    1  UNL1        0.0795
     20 C          18.8850   71.2232   -7.1591 C.ar    1  UNL1        0.0869
     21 O          15.6730   70.4201   -8.1657 O.2     1  UNL1       -0.2464
     22 O          19.4300   70.4917  -10.5305 O.2     1  UNL1       -0.2670
     23 H          17.0227   70.1615  -10.1798 H       1  UNL1        0.1734
     24 O          21.4212   71.9184   -1.6975 O.3     1  UNL1       -0.2703
     25 P          22.1521   71.6035   -0.2976 P.3     1  UNL1        0.2208
     26 O          21.1717   70.7295    0.6344 O.3     1  UNL1       -0.4371
     27 O          23.3970   70.8454   -0.5504 O.2     1  UNL1       -0.5170
     28 O          22.5073   72.9871    0.4454 O.3     1  UNL1       -0.2865
     29 C          23.7850   73.6186    0.3457 C.3     1  UNL1        0.2611
     30 C          24.0077   74.5171    1.5646 C.3     1  UNL1        0.1582
     31 C          22.9439   75.6192    1.5768 C.3     1  UNL1        0.1625
     32 C          23.0160   76.3981    0.2606 C.3     1  UNL1        0.1686
     33 C          22.8315   75.4268   -0.9084 C.3     1  UNL1        0.1760
     34 O          23.1884   76.5063    2.6707 O.3     1  UNL1       -0.3801
     35 O          24.2887   77.0385    0.1536 O.3     1  UNL1       -0.3794
     36 O          23.8333   74.4099   -0.8433 O.3     1  UNL1       -0.3263
     37 H          22.5506   77.2299    2.7398 H       1  UNL1        0.2105
     38 H          24.4049   77.5510   -0.6587 H       1  UNL1        0.2105
     39 C          22.7087   73.5914    3.4067 C.2     1  UNL1        0.2231
     40 C          22.5961   72.7701    4.6642 C.3     1  UNL1        0.0946
     41 N          23.8991   73.7181    2.7879 N.am    1  UNL1       -0.2994
     42 O          21.7272   74.1397    2.9502 O.2     1  UNL1       -0.2751
     43 H          24.6842   73.2808    3.1530 H       1  UNL1        0.1496
     44 C          22.9618   76.1879   -2.2290 C.3     1  UNL1        0.1693
     45 O          24.3238   76.1638   -2.6612 O.3     1  UNL1       -0.3794
     46 H          24.4809   76.6286   -3.4944 H       1  UNL1        0.2105
@<TRIPOS>BOND
     1    29    30    1
     2    30    41    1
     3    30    31    1
     4    31    34    1
     5    31    32    1
     6    32    35    1
     7    32    33    1
     8    33    36    1
     9    33    44    1
    10    39    40    1
    11    39    42    2
    12    39    41   am
    13    41    43    1
    14    29    28    1
    15    34    37    1
    16    35    38    1
    17    29    36    1
    18    44    45    1
    19    45    46    1
    20    15     6    1
    21    15    16   ar
    22    16    21    2
    23    16    17   ar
    24    17    23    1
    25    17    18   ar
    26    18    19   ar
    27    19    20   ar
    28    15    20   ar
    29    18    22    2
    30     6     7    1
    31     6    11    1
    32     7     9    1
    33     7     8    1
    34     8    13    1
    35     9    10    1
    36     9    12    1
    37    10     5    1
    38    10    11    1
    39    12    14    1
    40     5     4    1
    41     4     1    1
    42     1     2    1
    43     1    24    1
    44     1     3    2
    45    24    25    1
    46    28    25    1
    47    25    26    1
    48    25    27    2
@<TRIPOS>MOLECULE
UD2
 46 48 0 0 0
SMALL
GASTEIGER

@<TRIPOS>ATOM
      1 P          21.6717   73.2645   -6.5417 P.3     1  UNL1        0.2189
      2 O          23.0826   73.2602   -7.3168 O.3     1  UNL1       -0.4371
      3 O          20.8517   74.4015   -7.0147 O.2     1  UNL1       -0.5170
      4 O          20.8949   71.8843   -6.8339 O.3     1  UNL1       -0.3112
      5 C          20.6671   71.3849   -8.1530 C.3     1  UNL1        0.1811
      6 C          17.5441   70.1236   -6.8910 C.3     1  UNL1        0.2383
      7 C          17.1395   71.1196   -8.0074 C.3     1  UNL1        0.1895
      8 O          15.9190   70.7173   -8.6320 O.3     1  UNL1       -0.3779
      9 C          18.3284   71.0044   -8.9926 C.3     1  UNL1        0.1713
     10 C          19.4724   70.4282   -8.1365 C.3     1  UNL1        0.1764
     11 O          18.9755   70.2898   -6.7959 O.3     1  UNL1       -0.3308
     12 O          18.0057   70.1136  -10.0618 O.3     1  UNL1       -0.3794
     13 H          15.6239   71.3093   -9.3371 H       1  UNL1        0.2106
     14 H          17.2536   70.3980  -10.5984 H       1  UNL1        0.2105
     15 N          16.8981   70.4775   -5.6251 N.ar    1  UNL1       -0.2551
     16 C          16.4964   69.5051   -4.7873 C.ar    1  UNL1        0.3323
     17 N          15.8998   69.8013   -3.6174 N.ar    1  UNL1       -0.2743
     18 C          15.6966   71.0872   -3.2656 C.ar    1  UNL1        0.2626
     19 C          16.1153   72.1209   -4.1375 C.ar    1  UNL1        0.0795
     20 C          16.7146   71.7951   -5.3020 C.ar    1  UNL1        0.0869
     21 O          16.6734   68.3413   -5.0914 O.2     1  UNL1       -0.2464
     22 O          15.1571   71.3566   -2.2069 O.2     1  UNL1       -0.2670
     23 H          15.6152   69.0879   -3.0256 H       1  UNL1        0.1734
     24 O          21.9292   73.4099   -4.9587 O.3     1  UNL1       -0.2703
     25 P          22.7847   72.5702   -3.8836 P.3     1  UNL1        0.2208
     26 O          22.1869   71.0792   -3.7692 O.3     1  UNL1       -0.4371
     27 O          24.1965   72.5028   -4.3204 O.2     1  UNL1       -0.5170
     28 O          22.7007   73.2942   -2.4477 O.3     1  UNL1       -0.2865
     29 C          23.7966   74.0052   -1.8692 C.3     1  UNL1        0.2611
     30 C          23.7305   73.8933   -0.3441 C.3     1  UNL1        0.1582
     31 C          22.4375   74.5480    0.1518 C.3     1  UNL1        0.1625
     32 C          22.3986   76.0023   -0.3257 C.3     1  UNL1        0.1686
     33 C          22.5160   76.0329   -1.8519 C.3     1  UNL1        0.1760
     34 O          22.4024   74.5133    1.5803 O.3     1  UNL1       -0.3801
     35 O          23.4878   76.7240    0.2522 O.3     1  UNL1       -0.3794
     36 O          23.7244   75.3812   -2.2483 O.3     1  UNL1       -0.3263
     37 H          21.6088   74.9112    1.9637 H       1  UNL1        0.2105
     38 H          23.5259   77.6550   -0.0082 H       1  UNL1        0.2105
     39 C          24.4244   72.0889    1.1393 C.2     1  UNL1        0.2231
     40 C          24.4386   70.6368    1.5389 C.3     1  UNL1        0.0946
     41 N          23.7441   72.4806    0.0439 N.am    1  UNL1       -0.2994
     42 O          25.0257   72.9070    1.8036 O.2     1  UNL1       -0.2751
     43 H          23.2640   71.8267   -0.4881 H       1  UNL1        0.1496
     44 C          22.5380   77.4851   -2.3324 C.3     1  UNL1        0.1693
     45 O          23.3922   77.5975   -3.4727 O.3     1  UNL1       -0.3794
     46 H          23.4542   78.4932   -3.8316 H       1  UNL1        0.2105
@<TRIPOS>BOND
     1    29    30    1
     2    30    41    1
     3    30    31    1
     4    31    34    1
     5    31    32    1
     6    32    35    1
     7    32    33    1
     8    33    36    1
     9    33    44    1
    10    39    40    1
    11    39    42    2
    12    39    41   am
    13    41    43    1
    14    29    28    1
    15    34    37    1
    16    35    38    1
    17    29    36    1
    18    44    45    1
    19    45    46    1
    20    15     6    1
    21    15    16   ar
    22    16    21    2
    23    16    17   ar
    24    17    23    1
    25    17    18   ar
    26    18    19   ar
    27    19    20   ar
    28    15    20   ar
    29    18    22    2
    30     6     7    1
    31     6    11    1
    32     7     9    1
    33     7     8    1
    34     8    13    1
    35     9    10    1
    36     9    12    1
    37    10     5    1
    38    10    11    1
    39    12    14    1
    40     5     4    1
    41     4     1    1
    42     1     2    1
    43     1    24    1
    44     1     3    2
    45    24    25    1
    46    28    25    1
    47    25    26    1
    48    25    27    2
@<TRIPOS>MOLECULE
UD2
 46 48 0 0 0
SMALL
GASTEIGER

@<TRIPOS>ATOM
      1 P          22.7061   71.6689   -3.3420 P.3     1  UNL1        0.2189
      2 O          24.1593   71.0042   -3.1473 O.3     1  UNL1       -0.4371
      3 O          21.6626   70.7043   -2.9303 O.2     1  UNL1       -0.5170
      4 O          22.5976   72.9962   -2.4363 O.3     1  UNL1       -0.3112
      5 C          22.0261   72.9989   -1.1268 C.3     1  UNL1        0.1811
      6 C          24.2884   71.9736    1.4747 C.3     1  UNL1        0.2383
      7 C          22.9095   72.0752    2.1750 C.3     1  UNL1        0.1895
      8 O          22.8115   71.1357    3.2472 O.3     1  UNL1       -0.3779
      9 C          21.9348   71.7090    1.0290 C.3     1  UNL1        0.1713
     10 C          22.7474   71.9690   -0.2539 C.3     1  UNL1        0.1764
     11 O          24.0286   72.4799    0.1474 O.3     1  UNL1       -0.3308
     12 O          21.5595   70.3333    1.1137 O.3     1  UNL1       -0.3794
     13 H          21.9669   71.1612    3.7169 H       1  UNL1        0.2106
     14 H          21.0962   70.1007    1.9296 H       1  UNL1        0.2105
     15 N          25.2780   72.8072    2.1607 N.ar    1  UNL1       -0.2551
     16 C          26.3571   72.2342    2.7231 C.ar    1  UNL1        0.3323
     17 N          27.2825   72.9758    3.3601 N.ar    1  UNL1       -0.2743
     18 C          27.1404   74.3144    3.4424 C.ar    1  UNL1        0.2626
     19 C          26.0100   74.9309    2.8540 C.ar    1  UNL1        0.0795
     20 C          25.1001   74.1633    2.2180 C.ar    1  UNL1        0.0869
     21 O          26.4982   71.0284    2.6565 O.2     1  UNL1       -0.2464
     22 O          27.9775   74.9868    4.0183 O.2     1  UNL1       -0.2670
     23 H          28.0539   72.5465    3.7611 H       1  UNL1        0.1734
     24 O          22.4968   72.0582   -4.8906 O.3     1  UNL1       -0.2703
     25 P          21.2155   72.1221   -5.8638 P.3     1  UNL1        0.2208
     26 O          20.9251   73.6538   -6.2680 O.3     1  UNL1       -0.4371
     27 O          21.4838   71.3325   -7.0856 O.2     1  UNL1       -0.5170
     28 O          19.9329   71.5150   -5.1028 O.3     1  UNL1       -0.2865
     29 C          19.4376   70.1965   -5.3424 C.3     1  UNL1        0.2611
     30 C          18.2568   70.2627   -6.3140 C.3     1  UNL1        0.1582
     31 C          17.1262   71.0753   -5.6755 C.3     1  UNL1        0.1625
     32 C          16.7429   70.4340   -4.3390 C.3     1  UNL1        0.1686
     33 C          17.9824   70.3613   -3.4433 C.3     1  UNL1        0.1760
     34 O          15.9920   71.0805   -6.5454 O.3     1  UNL1       -0.3801
     35 O          16.2406   69.1163   -4.5681 O.3     1  UNL1       -0.3794
     36 O          19.0061   69.6187   -4.1086 O.3     1  UNL1       -0.3263
     37 H          15.2369   71.5787   -6.2037 H       1  UNL1        0.2105
     38 H          15.9783   68.6490   -3.7626 H       1  UNL1        0.2105
     39 C          18.5947   70.2448   -8.7272 C.2     1  UNL1        0.2231
     40 C          19.0317   70.9089  -10.0065 C.3     1  UNL1        0.0946
     41 N          18.6824   70.9092   -7.5580 N.am    1  UNL1       -0.2994
     42 O          18.1633   69.1110   -8.7487 O.2     1  UNL1       -0.2751
     43 H          19.0281   71.8154   -7.5402 H       1  UNL1        0.1496
     44 C          17.6212   69.6675   -2.1285 C.3     1  UNL1        0.1693
     45 O          16.2227   69.8199   -1.8771 O.3     1  UNL1       -0.3794
     46 H          15.9221   69.4037   -1.0577 H       1  UNL1        0.2105
@<TRIPOS>BOND
     1    29    30    1
     2    30    41    1
     3    30    31    1
     4    31    34    1
     5    31    32    1
     6    32    35    1
     7    32    33    1
     8    33    36    1
     9    33    44    1
    10    39    40    1
    11    39    42    2
    12    39    41   am
    13    41    43    1
    14    29    28    1
    15    34    37    1
    16    35    38    1
    17    29    36    1
    18    44    45    1
    19    45    46    1
    20    15     6    1
    21    15    16   ar
    22    16    21    2
    23    16    17   ar
    24    17    23    1
    25    17    18   ar
    26    18    19   ar
    27    19    20   ar
    28    15    20   ar
    29    18    22    2
    30     6     7    1
    31     6    11    1
    32     7     9    1
    33     7     8    1
    34     8    13    1
    35     9    10    1
    36     9    12    1
    37    10     5    1
    38    10    11    1
    39    12    14    1
    40     5     4    1
    41     4     1    1
    42     1     2    1
    43     1    24    1
    44     1     3    2
    45    24    25    1
    46    28    25    1
    47    25    26    1
    48    25    27    2
@<TRIPOS>MOLECULE
UD2
 46 48 0 0 0
SMALL
GASTEIGER

@<TRIPOS>ATOM
      1 P          20.6952   70.6726   -3.8518 P.3     1  UNL1        0.2189
      2 O          20.1912   69.1801   -4.1831 O.3     1  UNL1       -0.4371
      3 O          21.1750   71.3189   -5.0932 O.2     1  UNL1       -0.5170
      4 O          19.4755   71.5270   -3.2387 O.3     1  UNL1       -0.3112
      5 C          18.3551   70.9252   -2.5876 C.3     1  UNL1        0.1811
      6 C          16.8285   70.5487   -5.8225 C.3     1  UNL1        0.2383
      7 C          16.8026   69.1247   -5.2113 C.3     1  UNL1        0.1895
      8 O          15.6739   68.3871   -5.6843 O.3     1  UNL1       -0.3779
      9 C          16.6726   69.4228   -3.6975 C.3     1  UNL1        0.1713
     10 C          17.1703   70.8739   -3.5554 C.3     1  UNL1        0.1764
     11 O          17.5844   71.3138   -4.8587 O.3     1  UNL1       -0.3308
     12 O          15.3093   69.3183   -3.2837 O.3     1  UNL1       -0.3794
     13 H          15.6141   67.4893   -5.3305 H       1  UNL1        0.2106
     14 H          14.9265   68.4393   -3.4065 H       1  UNL1        0.2105
     15 N          17.5061   70.5405   -7.1209 N.ar    1  UNL1       -0.2551
     16 C          16.7793   70.4933   -8.2516 C.ar    1  UNL1        0.3323
     17 N          17.3755   70.4845   -9.4585 N.ar    1  UNL1       -0.2743
     18 C          18.7202   70.5248   -9.5516 C.ar    1  UNL1        0.2626
     19 C          19.4976   70.5757   -8.3695 C.ar    1  UNL1        0.0795
     20 C          18.8732   70.5878   -7.1731 C.ar    1  UNL1        0.0869
     21 O          15.5659   70.4568   -8.1828 O.2     1  UNL1       -0.2464
     22 O          19.2610   70.5173  -10.6434 O.2     1  UNL1       -0.2670
     23 H          16.8365   70.4490  -10.2638 H       1  UNL1        0.1734
     24 O          21.8963   70.6084   -2.7810 O.3     1  UNL1       -0.2703
     25 P          23.0404   71.6440   -2.3212 P.3     1  UNL1        0.2208
     26 O          24.4802   70.9283   -2.4141 O.3     1  UNL1       -0.4371
     27 O          23.0205   72.8275   -3.2084 O.2     1  UNL1       -0.5170
     28 O          22.7673   72.1061   -0.8031 O.3     1  UNL1       -0.2865
     29 C          22.3295   71.2071    0.2174 C.3     1  UNL1        0.2611
     30 C          21.3633   71.9322    1.1573 C.3     1  UNL1        0.1582
     31 C          22.1003   73.0882    1.8407 C.3     1  UNL1        0.1625
     32 C          23.3226   72.5350    2.5785 C.3     1  UNL1        0.1686
     33 C          24.2135   71.7866    1.5835 C.3     1  UNL1        0.1760
     34 O          21.2263   73.7254    2.7751 O.3     1  UNL1       -0.3801
     35 O          22.8952   71.6386    3.6057 O.3     1  UNL1       -0.3794
     36 O          23.4590   70.7449    0.9610 O.3     1  UNL1       -0.3263
     37 H          21.6282   74.4690    3.2450 H       1  UNL1        0.2105
     38 H          23.6195   71.2488    4.1150 H       1  UNL1        0.2105
     39 C          20.2894   73.7042   -0.1250 C.2     1  UNL1        0.2231
     40 C          19.1288   74.2463   -0.9173 C.3     1  UNL1        0.0946
     41 N          20.2339   72.4588    0.3869 N.am    1  UNL1       -0.2994
     42 O          21.2752   74.3889    0.0530 O.2     1  UNL1       -0.2751
     43 H          19.4456   71.9114    0.2457 H       1  UNL1        0.1496
     44 C          25.4068   71.1798    2.3240 C.3     1  UNL1        0.1693
     45 O          25.0976   69.8387    2.7090 O.3     1  UNL1       -0.3794
     46 H          25.8108   69.3910    3.1843 H       1  UNL1        0.2105
@<TRIPOS>BOND
     1    29    30    1
     2    30    41    1
     3    30    31    1
     4    31    34    1
     5    31    32    1
     6    32    35    1
     7    32    33    1
     8    33    36    1
     9    33    44    1
    10    39    40    1
    11    39    42    2
    12    39    41   am
    13    41    43    1
    14    29    28    1
    15    34    37    1
    16    35    38    1
    17    29    36    1
    18    44    45    1
    19    45    46    1
    20    15     6    1
    21    15    16   ar
    22    16    21    2
    23    16    17   ar
    24    17    23    1
    25    17    18   ar
    26    18    19   ar
    27    19    20   ar
    28    15    20   ar
    29    18    22    2
    30     6     7    1
    31     6    11    1
    32     7     9    1
    33     7     8    1
    34     8    13    1
    35     9    10    1
    36     9    12    1
    37    10     5    1
    38    10    11    1
    39    12    14    1
    40     5     4    1
    41     4     1    1
    42     1     2    1
    43     1    24    1
    44     1     3    2
    45    24    25    1
    46    28    25    1
    47    25    26    1
    48    25    27    2
@<TRIPOS>MOLECULE
UD2
 46 48 0 0 0
SMALL
GASTEIGER

@<TRIPOS>ATOM
      1 P          23.1067   71.6988   -3.1939 P.3     1  UNL1        0.2189
      2 O          23.4118   72.5619   -4.5180 O.3     1  UNL1       -0.4371
      3 O          24.1366   70.6476   -3.0413 O.2     1  UNL1       -0.5170
      4 O          23.1314   72.6654   -1.9059 O.3     1  UNL1       -0.3112
      5 C          23.3639   74.0724   -1.9946 C.3     1  UNL1        0.1811
      6 C          21.8503   75.0062    1.1317 C.3     1  UNL1        0.2383
      7 C          22.9049   76.1100    0.8643 C.3     1  UNL1        0.1895
      8 O          22.4877   77.3592    1.4185 O.3     1  UNL1       -0.3779
      9 C          22.9262   76.1716   -0.6827 C.3     1  UNL1        0.1713
     10 C          22.3477   74.8129   -1.1217 C.3     1  UNL1        0.1764
     11 O          22.0831   74.0555    0.0699 O.3     1  UNL1       -0.3308
     12 O          22.1028   77.2410   -1.1507 O.3     1  UNL1       -0.3794
     13 H          23.1149   78.0813    1.2777 H       1  UNL1        0.2106
     14 H          22.3873   78.1161   -0.8545 H       1  UNL1        0.2105
     15 N          22.0737   74.3851    2.4391 N.ar    1  UNL1       -0.2551
     16 C          21.0321   73.8798    3.1236 C.ar    1  UNL1        0.3323
     17 N          21.2082   73.3036    4.3274 N.ar    1  UNL1       -0.2743
     18 C          22.4413   73.2225    4.8672 C.ar    1  UNL1        0.2626
     19 C          23.5469   73.7494    4.1572 C.ar    1  UNL1        0.0795
     20 C          23.3418   74.3178    2.9504 C.ar    1  UNL1        0.0869
     21 O          19.9146   73.9457    2.6489 O.2     1  UNL1       -0.2464
     22 O          22.6021   72.7008    5.9565 O.2     1  UNL1       -0.2670
     23 H          20.4461   72.9454    4.8080 H       1  UNL1        0.1734
     24 O          21.6550   71.0138   -3.3220 O.3     1  UNL1       -0.2703
     25 P          20.2439   71.2373   -2.5792 P.3     1  UNL1        0.2208
     26 O          20.2858   70.5405   -1.1278 O.3     1  UNL1       -0.4371
     27 O          19.9926   72.6867   -2.4228 O.2     1  UNL1       -0.5170
     28 O          19.0652   70.5794   -3.4570 O.3     1  UNL1       -0.2865
     29 C          17.8836   71.2902   -3.8309 C.3     1  UNL1        0.2611
     30 C          16.7141   70.3101   -3.9513 C.3     1  UNL1        0.1582
     31 C          17.0190   69.2986   -5.0605 C.3     1  UNL1        0.1625
     32 C          17.2809   70.0531   -6.3668 C.3     1  UNL1        0.1686
     33 C          18.4289   71.0432   -6.1532 C.3     1  UNL1        0.1760
     34 O          15.9007   68.4244   -5.2297 O.3     1  UNL1       -0.3801
     35 O          16.1026   70.7630   -6.7528 O.3     1  UNL1       -0.3794
     36 O          18.0942   71.9356   -5.0884 O.3     1  UNL1       -0.3263
     37 H          16.0251   67.7560   -5.9174 H       1  UNL1        0.2105
     38 H          16.1968   71.2657   -7.5741 H       1  UNL1        0.2105
     39 C          15.4148   69.7947   -1.9553 C.2     1  UNL1        0.2231
     40 C          15.2295   69.0688   -0.6486 C.3     1  UNL1        0.0946
     41 N          16.5347   69.6038   -2.6803 N.am    1  UNL1       -0.2994
     42 O          14.5556   70.5519   -2.3559 O.2     1  UNL1       -0.2751
     43 H          17.2224   68.9993   -2.3599 H       1  UNL1        0.1496
     44 C          18.6573   71.8435   -7.4369 C.3     1  UNL1        0.1693
     45 O          19.0003   73.1904   -7.1048 O.3     1  UNL1       -0.3794
     46 H          19.1596   73.7570   -7.8721 H       1  UNL1        0.2105
@<TRIPOS>BOND
     1    29    30    1
     2    30    41    1
     3    30    31    1
     4    31    34    1
     5    31    32    1
     6    32    35    1
     7    32    33    1
     8    33    36    1
     9    33    44    1
    10    39    40    1
    11    39    42    2
    12    39    41   am
    13    41    43    1
    14    29    28    1
    15    34    37    1
    16    35    38    1
    17    29    36    1
    18    44    45    1
    19    45    46    1
    20    15     6    1
    21    15    16   ar
    22    16    21    2
    23    16    17   ar
    24    17    23    1
    25    17    18   ar
    26    18    19   ar
    27    19    20   ar
    28    15    20   ar
    29    18    22    2
    30     6     7    1
    31     6    11    1
    32     7     9    1
    33     7     8    1
    34     8    13    1
    35     9    10    1
    36     9    12    1
    37    10     5    1
    38    10    11    1
    39    12    14    1
    40     5     4    1
    41     4     1    1
    42     1     2    1
    43     1    24    1
    44     1     3    2
    45    24    25    1
    46    28    25    1
    47    25    26    1
    48    25    27    2
@<TRIPOS>MOLECULE
UD2
 46 48 0 0 0
SMALL
GASTEIGER

@<TRIPOS>ATOM
      1 P          20.0557   72.7120   -1.6747 P.3     1  UNL1        0.2189
      2 O          19.9462   74.1023   -2.4788 O.3     1  UNL1       -0.4371
      3 O          18.9567   72.6241   -0.6881 O.2     1  UNL1       -0.5170
      4 O          19.9468   71.4834   -2.7103 O.3     1  UNL1       -0.3112
      5 C          19.0606   70.3795   -2.5161 C.3     1  UNL1        0.1811
      6 C          17.2389   70.4884   -5.6155 C.3     1  UNL1        0.2383
      7 C          17.0520   69.0372   -5.1043 C.3     1  UNL1        0.1895
      8 O          15.7921   68.5077   -5.5216 O.3     1  UNL1       -0.3779
      9 C          17.0903   69.2260   -3.5680 C.3     1  UNL1        0.1713
     10 C          17.8070   70.5756   -3.3722 C.3     1  UNL1        0.1764
     11 O          18.1750   71.0575   -4.6745 O.3     1  UNL1       -0.3308
     12 O          15.7644   69.2819   -3.0391 O.3     1  UNL1       -0.3794
     13 H          15.6289   67.6016   -5.2268 H       1  UNL1        0.2106
     14 H          15.2471   68.4787   -3.1867 H       1  UNL1        0.2105
     15 N          17.8006   70.4905   -6.9680 N.ar    1  UNL1       -0.2551
     16 C          16.9794   70.4213   -8.0308 C.ar    1  UNL1        0.3323
     17 N          17.4681   70.4213   -9.2852 N.ar    1  UNL1       -0.2743
     18 C          18.7982   70.4931   -9.4954 C.ar    1  UNL1        0.2626
     19 C          19.6743   70.5676   -8.3858 C.ar    1  UNL1        0.0795
     20 C          19.1565   70.5700   -7.1394 C.ar    1  UNL1        0.0869
     21 O          15.7779   70.3563   -7.8563 O.2     1  UNL1       -0.2464
     22 O          19.2418   70.4936  -10.6301 O.2     1  UNL1       -0.2670
     23 H          16.8620   70.3696  -10.0402 H       1  UNL1        0.1734
     24 O          21.4710   72.6441   -0.9096 O.3     1  UNL1       -0.2703
     25 P          22.1479   71.5853    0.0972 P.3     1  UNL1        0.2208
     26 O          21.1109   70.3894    0.3942 O.3     1  UNL1       -0.4371
     27 O          23.3740   71.0326   -0.5189 O.2     1  UNL1       -0.5170
     28 O          22.5260   72.3234    1.4774 O.3     1  UNL1       -0.2865
     29 C          22.3456   73.7253    1.6853 C.3     1  UNL1        0.2611
     30 C          23.6315   74.4671    1.3123 C.3     1  UNL1        0.1582
     31 C          24.7641   74.0023    2.2330 C.3     1  UNL1        0.1625
     32 C          24.3559   74.2441    3.6888 C.3     1  UNL1        0.1686
     33 C          23.0418   73.5107    3.9702 C.3     1  UNL1        0.1760
     34 O          25.9512   74.7430    1.9405 O.3     1  UNL1       -0.3801
     35 O          24.1785   75.6446    3.9088 O.3     1  UNL1       -0.3794
     36 O          22.0392   73.9671    3.0600 O.3     1  UNL1       -0.3263
     37 H          26.7109   74.4994    2.4870 H       1  UNL1        0.2105
     38 H          23.9178   75.8716    4.8124 H       1  UNL1        0.2105
     39 C          24.3949   75.1624   -0.8948 C.2     1  UNL1        0.2231
     40 C          24.7537   74.8604   -2.3261 C.3     1  UNL1        0.0946
     41 N          23.9801   74.1725   -0.0799 N.am    1  UNL1       -0.2994
     42 O          24.4792   76.2976   -0.4747 O.2     1  UNL1       -0.2751
     43 H          23.9116   73.2650   -0.4156 H       1  UNL1        0.1496
     44 C          22.5961   73.7960    5.4056 C.3     1  UNL1        0.1693
     45 O          21.2404   73.3773    5.5763 O.3     1  UNL1       -0.3794
     46 H          20.8904   73.5283    6.4649 H       1  UNL1        0.2105
@<TRIPOS>BOND
     1    29    30    1
     2    30    41    1
     3    30    31    1
     4    31    34    1
     5    31    32    1
     6    32    35    1
     7    32    33    1
     8    33    36    1
     9    33    44    1
    10    39    40    1
    11    39    42    2
    12    39    41   am
    13    41    43    1
    14    29    28    1
    15    34    37    1
    16    35    38    1
    17    29    36    1
    18    44    45    1
    19    45    46    1
    20    15     6    1
    21    15    16   ar
    22    16    21    2
    23    16    17   ar
    24    17    23    1
    25    17    18   ar
    26    18    19   ar
    27    19    20   ar
    28    15    20   ar
    29    18    22    2
    30     6     7    1
    31     6    11    1
    32     7     9    1
    33     7     8    1
    34     8    13    1
    35     9    10    1
    36     9    12    1
    37    10     5    1
    38    10    11    1
    39    12    14    1
    40     5     4    1
    41     4     1    1
    42     1     2    1
    43     1    24    1
    44     1     3    2
    45    24    25    1
    46    28    25    1
    47    25    26    1
    48    25    27    2
@<TRIPOS>MOLECULE
UD2
 46 48 0 0 0
SMALL
GASTEIGER

@<TRIPOS>ATOM
      1 P          21.2244   71.6273   -2.7124 P.3     1  UNL1        0.2189
      2 O          20.8218   73.1328   -2.3092 O.3     1  UNL1       -0.4371
      3 O          21.7725   70.9288   -1.5289 O.2     1  UNL1       -0.5170
      4 O          19.9188   70.8459   -3.2400 O.3     1  UNL1       -0.3112
      5 C          18.7382   70.6844   -2.4517 C.3     1  UNL1        0.1811
      6 C          17.0484   70.4933   -5.6210 C.3     1  UNL1        0.2383
      7 C          16.9917   69.0491   -5.0614 C.3     1  UNL1        0.1895
      8 O          15.8125   68.3757   -5.5062 O.3     1  UNL1       -0.3779
      9 C          16.9448   69.2940   -3.5333 C.3     1  UNL1        0.1713
     10 C          17.5085   70.7176   -3.3626 C.3     1  UNL1        0.1764
     11 O          17.8795   71.1901   -4.6674 O.3     1  UNL1       -0.3308
     12 O          15.5991   69.2282   -3.0585 O.3     1  UNL1       -0.3794
     13 H          15.7318   67.4682   -5.1828 H       1  UNL1        0.2106
     14 H          15.1746   68.3704   -3.1947 H       1  UNL1        0.2105
     15 N          17.6639   70.5077   -6.9499 N.ar    1  UNL1       -0.2551
     16 C          16.8843   70.4903   -8.0457 C.ar    1  UNL1        0.3323
     17 N          17.4228   70.5028   -9.2794 N.ar    1  UNL1       -0.2743
     18 C          18.7619   70.5350   -9.4351 C.ar    1  UNL1        0.2626
     19 C          19.5946   70.5546   -8.2904 C.ar    1  UNL1        0.0795
     20 C          19.0275   70.5458   -7.0657 C.ar    1  UNL1        0.0869
     21 O          15.6752   70.4615   -7.9203 O.2     1  UNL1       -0.2464
     22 O          19.2506   70.5467  -10.5512 O.2     1  UNL1       -0.2670
     23 H          16.8462   70.4887  -10.0588 H       1  UNL1        0.1734
     24 O          22.3355   71.6623   -3.8776 O.3     1  UNL1       -0.2703
     25 P          22.9823   72.8359   -4.7705 P.3     1  UNL1        0.2208
     26 O          24.4881   73.1191   -4.2744 O.3     1  UNL1       -0.4371
     27 O          23.0011   72.4223   -6.1907 O.2     1  UNL1       -0.5170
     28 O          22.1039   74.1762   -4.6129 O.3     1  UNL1       -0.2865
     29 C          21.8093   75.0469   -5.7066 C.3     1  UNL1        0.2611
     30 C          21.7997   76.4971   -5.2173 C.3     1  UNL1        0.1582
     31 C          20.6902   76.6678   -4.1750 C.3     1  UNL1        0.1625
     32 C          19.3529   76.2560   -4.7965 C.3     1  UNL1        0.1686
     33 C          19.4569   74.8147   -5.3022 C.3     1  UNL1        0.1760
     34 O          20.6258   78.0361   -3.7664 O.3     1  UNL1       -0.3801
     35 O          19.0460   77.1248   -5.8885 O.3     1  UNL1       -0.3794
     36 O          20.5268   74.7182   -6.2445 O.3     1  UNL1       -0.3263
     37 H          19.9438   78.2169   -3.1051 H       1  UNL1        0.2105
     38 H          18.2101   76.9212   -6.3311 H       1  UNL1        0.2105
     39 C          23.9409   77.6601   -5.2356 C.2     1  UNL1        0.2231
     40 C          25.2721   77.9903   -4.6131 C.3     1  UNL1        0.0946
     41 N          23.0944   76.8177   -4.6112 N.am    1  UNL1       -0.2994
     42 O          23.6300   78.1525   -6.3001 O.2     1  UNL1       -0.2751
     43 H          23.3430   76.4230   -3.7607 H       1  UNL1        0.1496
     44 C          18.1438   74.4156   -5.9782 C.3     1  UNL1        0.1693
     45 O          18.4190   73.8691   -7.2697 O.3     1  UNL1       -0.3794
     46 H          17.6305   73.5937   -7.7570 H       1  UNL1        0.2105
@<TRIPOS>BOND
     1    29    30    1
     2    30    41    1
     3    30    31    1
     4    31    34    1
     5    31    32    1
     6    32    35    1
     7    32    33    1
     8    33    36    1
     9    33    44    1
    10    39    40    1
    11    39    42    2
    12    39    41   am
    13    41    43    1
    14    29    28    1
    15    34    37    1
    16    35    38    1
    17    29    36    1
    18    44    45    1
    19    45    46    1
    20    15     6    1
    21    15    16   ar
    22    16    21    2
    23    16    17   ar
    24    17    23    1
    25    17    18   ar
    26    18    19   ar
    27    19    20   ar
    28    15    20   ar
    29    18    22    2
    30     6     7    1
    31     6    11    1
    32     7     9    1
    33     7     8    1
    34     8    13    1
    35     9    10    1
    36     9    12    1
    37    10     5    1
    38    10    11    1
    39    12    14    1
    40     5     4    1
    41     4     1    1
    42     1     2    1
    43     1    24    1
    44     1     3    2
    45    24    25    1
    46    28    25    1
    47    25    26    1
    48    25    27    2
@<TRIPOS>MOLECULE
UD2
 46 48 0 0 0
SMALL
GASTEIGER

@<TRIPOS>ATOM
      1 P          23.0236   71.7421   -2.9358 P.3     1  UNL1        0.2189
      2 O          23.2559   73.0032   -3.9089 O.3     1  UNL1       -0.4371
      3 O          24.1692   70.8128   -3.0496 O.2     1  UNL1       -0.5170
      4 O          22.8972   72.2545   -1.4143 O.3     1  UNL1       -0.3112
      5 C          23.9225   72.0550   -0.4394 C.3     1  UNL1        0.1811
      6 C          22.8426   72.0826    2.9913 C.3     1  UNL1        0.2383
      7 C          21.5774   72.4640    2.1815 C.3     1  UNL1        0.1895
      8 O          20.3936   72.0118    2.8417 O.3     1  UNL1       -0.3779
      9 C          21.7971   71.6971    0.8545 C.3     1  UNL1        0.1713
     10 C          23.3144   71.4320    0.8196 C.3     1  UNL1        0.1764
     11 O          23.8822   72.0415    1.9898 O.3     1  UNL1       -0.3308
     12 O          21.0738   70.4652    0.8646 O.3     1  UNL1       -0.3794
     13 H          19.5754   72.2272    2.3739 H       1  UNL1        0.2106
     14 H          20.1163   70.5711    0.9450 H       1  UNL1        0.2105
     15 N          23.1369   73.1034    3.9995 N.ar    1  UNL1       -0.2551
     16 C          23.7730   74.2322    3.6389 C.ar    1  UNL1        0.3323
     17 N          24.0565   75.1872    4.5444 N.ar    1  UNL1       -0.2743
     18 C          23.7022   75.0249    5.8354 C.ar    1  UNL1        0.2626
     19 C          23.0312   73.8421    6.2287 C.ar    1  UNL1        0.0795
     20 C          22.7560   72.9032    5.2990 C.ar    1  UNL1        0.0869
     21 O          24.0982   74.3921    2.4783 O.2     1  UNL1       -0.2464
     22 O          23.9578   75.8886    6.6559 O.2     1  UNL1       -0.2670
     23 H          24.5167   75.9945    4.2677 H       1  UNL1        0.1734
     24 O          21.6696   70.9798   -3.3588 O.3     1  UNL1       -0.2703
     25 P          20.1070   71.2275   -3.0592 P.3     1  UNL1        0.2208
     26 O          19.6655   70.3690   -1.7701 O.3     1  UNL1       -0.4371
     27 O          19.8767   72.6649   -2.7962 O.2     1  UNL1       -0.5170
     28 O          19.2368   70.7685   -4.3338 O.3     1  UNL1       -0.2865
     29 C          18.4530   71.6771   -5.1093 C.3     1  UNL1        0.2611
     30 C          17.0465   71.1043   -5.3005 C.3     1  UNL1        0.1582
     31 C          17.1417   69.7894   -6.0805 C.3     1  UNL1        0.1625
     32 C          17.8489   70.0491   -7.4135 C.3     1  UNL1        0.1686
     33 C          19.2248   70.6626   -7.1407 C.3     1  UNL1        0.1760
     34 O          15.8273   69.2849   -6.3275 O.3     1  UNL1       -0.3801
     35 O          17.0698   70.9527   -8.1994 O.3     1  UNL1       -0.3794
     36 O          19.0670   71.8656   -6.3859 O.3     1  UNL1       -0.3263
     37 H          15.8121   68.4516   -6.8179 H       1  UNL1        0.2105
     38 H          17.4592   71.1632   -9.0597 H       1  UNL1        0.2105
     39 C          16.5351   69.6354   -3.4248 C.2     1  UNL1        0.2231
     40 C          15.9099   69.3775   -2.0789 C.3     1  UNL1        0.0946
     41 N          16.4379   70.8542   -3.9915 N.am    1  UNL1       -0.2994
     42 O          17.1266   68.7455   -3.9995 O.2     1  UNL1       -0.2751
     43 H          15.9642   71.5657   -3.5327 H       1  UNL1        0.1496
     44 C          19.9137   70.9803   -8.4692 C.3     1  UNL1        0.1693
     45 O          20.7922   72.0942   -8.2967 O.3     1  UNL1       -0.3794
     46 H          21.2639   72.3520   -9.1004 H       1  UNL1        0.2105
@<TRIPOS>BOND
     1    29    30    1
     2    30    41    1
     3    30    31    1
     4    31    34    1
     5    31    32    1
     6    32    35    1
     7    32    33    1
     8    33    36    1
     9    33    44    1
    10    39    40    1
    11    39    42    2
    12    39    41   am
    13    41    43    1
    14    29    28    1
    15    34    37    1
    16    35    38    1
    17    29    36    1
    18    44    45    1
    19    45    46    1
    20    15     6    1
    21    15    16   ar
    22    16    21    2
    23    16    17   ar
    24    17    23    1
    25    17    18   ar
    26    18    19   ar
    27    19    20   ar
    28    15    20   ar
    29    18    22    2
    30     6     7    1
    31     6    11    1
    32     7     9    1
    33     7     8    1
    34     8    13    1
    35     9    10    1
    36     9    12    1
    37    10     5    1
    38    10    11    1
    39    12    14    1
    40     5     4    1
    41     4     1    1
    42     1     2    1
    43     1    24    1
    44     1     3    2
    45    24    25    1
    46    28    25    1
    47    25    26    1
    48    25    27    2
@<TRIPOS>MOLECULE
UD2
 46 48 0 0 0
SMALL
GASTEIGER

@<TRIPOS>ATOM
      1 P          22.5032   73.0031   -4.3758 P.3     1  UNL1        0.2189
      2 O          22.9850   73.8261   -5.6727 O.3     1  UNL1       -0.4371
      3 O          23.3226   71.7794   -4.2349 O.2     1  UNL1       -0.5170
      4 O          22.6777   73.9200   -3.0633 O.3     1  UNL1       -0.3112
      5 C          21.9248   73.7150   -1.8664 C.3     1  UNL1        0.1811
      6 C          23.7435   71.8370    0.6038 C.3     1  UNL1        0.2383
      7 C          22.3344   72.0291    1.2199 C.3     1  UNL1        0.1895
      8 O          21.9924   70.9282    2.0641 O.3     1  UNL1       -0.3779
      9 C          21.4314   72.0625   -0.0374 C.3     1  UNL1        0.1713
     10 C          22.3944   72.4284   -1.1830 C.3     1  UNL1        0.1764
     11 O          23.6930   72.6292   -0.6026 O.3     1  UNL1       -0.3308
     12 O          20.8465   70.7794   -0.2657 O.3     1  UNL1       -0.3794
     13 H          21.1198   71.0024    2.4735 H       1  UNL1        0.2106
     14 H          20.2765   70.4727    0.4523 H       1  UNL1        0.2105
     15 N          24.7764   72.3427    1.5107 N.ar    1  UNL1       -0.2551
     16 C          25.5451   71.4765    2.1945 C.ar    1  UNL1        0.3323
     17 N          26.5017   71.9132    3.0350 N.ar    1  UNL1       -0.2743
     18 C          26.7055   73.2356    3.2030 C.ar    1  UNL1        0.2626
     19 C          25.9043   74.1586    2.4887 C.ar    1  UNL1        0.0795
     20 C          24.9554   73.6928    1.6496 C.ar    1  UNL1        0.0869
     21 O          25.3726   70.2813    2.0527 O.2     1  UNL1       -0.2464
     22 O          27.5713   73.6321    3.9630 O.2     1  UNL1       -0.2670
     23 H          27.0462   71.2750    3.5212 H       1  UNL1        0.1734
     24 O          20.9542   72.5960   -4.5431 O.3     1  UNL1       -0.2703
     25 P          20.0287   71.4376   -3.9150 P.3     1  UNL1        0.2208
     26 O          20.9585   70.2239   -3.4088 O.3     1  UNL1       -0.4371
     27 O          19.2640   71.9823   -2.7718 O.2     1  UNL1       -0.5170
     28 O          19.0070   70.8995   -5.0371 O.3     1  UNL1       -0.2865
     29 C          18.1640   71.7638   -5.8010 C.3     1  UNL1        0.2611
     30 C          16.7594   71.1619   -5.8880 C.3     1  UNL1        0.1582
     31 C          16.8334   69.8184   -6.6200 C.3     1  UNL1        0.1625
     32 C          17.4585   70.0353   -8.0008 C.3     1  UNL1        0.1686
     33 C          18.8366   70.6807   -7.8323 C.3     1  UNL1        0.1760
     34 O          15.5163   69.2839   -6.7707 O.3     1  UNL1       -0.3801
     35 O          16.6197   70.8943   -8.7753 O.3     1  UNL1       -0.3794
     36 O          18.7006   71.9105   -7.1174 O.3     1  UNL1       -0.3263
     37 H          15.4880   68.4314   -7.2264 H       1  UNL1        0.2105
     38 H          16.9556   71.0762   -9.6642 H       1  UNL1        0.2105
     39 C          16.3737   69.7588   -3.9335 C.2     1  UNL1        0.2231
     40 C          15.8312   69.5454   -2.5448 C.3     1  UNL1        0.0946
     41 N          16.2311   70.9552   -4.5372 N.am    1  UNL1       -0.2994
     42 O          16.9396   68.8532   -4.5096 O.2     1  UNL1       -0.2751
     43 H          15.7779   71.6791   -4.0774 H       1  UNL1        0.1496
     44 C          19.4427   70.9555   -9.2098 C.3     1  UNL1        0.1693
     45 O          18.4046   70.9789  -10.1917 O.3     1  UNL1       -0.3794
     46 H          18.7169   71.1484  -11.0911 H       1  UNL1        0.2105
@<TRIPOS>BOND
     1    29    30    1
     2    30    41    1
     3    30    31    1
     4    31    34    1
     5    31    32    1
     6    32    35    1
     7    32    33    1
     8    33    36    1
     9    33    44    1
    10    39    40    1
    11    39    42    2
    12    39    41   am
    13    41    43    1
    14    29    28    1
    15    34    37    1
    16    35    38    1
    17    29    36    1
    18    44    45    1
    19    45    46    1
    20    15     6    1
    21    15    16   ar
    22    16    21    2
    23    16    17   ar
    24    17    23    1
    25    17    18   ar
    26    18    19   ar
    27    19    20   ar
    28    15    20   ar
    29    18    22    2
    30     6     7    1
    31     6    11    1
    32     7     9    1
    33     7     8    1
    34     8    13    1
    35     9    10    1
    36     9    12    1
    37    10     5    1
    38    10    11    1
    39    12    14    1
    40     5     4    1
    41     4     1    1
    42     1     2    1
    43     1    24    1
    44     1     3    2
    45    24    25    1
    46    28    25    1
    47    25    26    1
    48    25    27    2
@<TRIPOS>MOLECULE
UD2
 46 48 0 0 0
SMALL
GASTEIGER

@<TRIPOS>ATOM
      1 P          22.9083   72.4962   -3.7577 P.3     1  UNL1        0.2189
      2 O          23.5233   71.3778   -2.7767 O.3     1  UNL1       -0.4371
      3 O          23.8951   72.8274   -4.8092 O.2     1  UNL1       -0.5170
      4 O          21.5649   71.9296   -4.4417 O.3     1  UNL1       -0.3112
      5 C          21.2138   72.1942   -5.8012 C.3     1  UNL1        0.1811
      6 C          17.9596   70.7286   -5.3551 C.3     1  UNL1        0.2383
      7 C          17.7005   72.0040   -6.1967 C.3     1  UNL1        0.1895
      8 O          16.5776   71.8248   -7.0620 O.3     1  UNL1       -0.3779
      9 C          19.0114   72.1280   -7.0114 C.3     1  UNL1        0.1713
     10 C          20.0348   71.3055   -6.2053 C.3     1  UNL1        0.1764
     11 O          19.3641   70.8197   -5.0316 O.3     1  UNL1       -0.3308
     12 O          18.8414   71.5744   -8.3173 O.3     1  UNL1       -0.3794
     13 H          16.3752   72.5959   -7.6089 H       1  UNL1        0.2106
     14 H          18.1658   72.0173   -8.8482 H       1  UNL1        0.2105
     15 N          17.1473   70.7409   -4.1365 N.ar    1  UNL1       -0.2551
     16 C          16.4002   69.6675   -3.8227 C.ar    1  UNL1        0.3323
     17 N          15.6440   69.6513   -2.7091 N.ar    1  UNL1       -0.2743
     18 C          15.6261   70.7188   -1.8853 C.ar    1  UNL1        0.2626
     19 C          16.4084   71.8551   -2.2028 C.ar    1  UNL1        0.0795
     20 C          17.1605   71.8422   -3.3234 C.ar    1  UNL1        0.0869
     21 O          16.4068   68.6978   -4.5563 O.2     1  UNL1       -0.2464
     22 O          14.9423   70.7052   -0.8769 O.2     1  UNL1       -0.2670
     23 H          15.1103   68.8697   -2.4984 H       1  UNL1        0.1734
     24 O          22.5609   73.8210   -2.9108 O.3     1  UNL1       -0.2703
     25 P          23.4477   74.9002   -2.1096 P.3     1  UNL1        0.2208
     26 O          24.9873   74.7732   -2.5651 O.3     1  UNL1       -0.4371
     27 O          22.9562   76.2629   -2.4091 O.2     1  UNL1       -0.5170
     28 O          23.3309   74.6225   -0.5279 O.3     1  UNL1       -0.2865
     29 C          23.8261   73.4346    0.0926 C.3     1  UNL1        0.2611
     30 C          22.6623   72.6602    0.7158 C.3     1  UNL1        0.1582
     31 C          22.0145   73.5191    1.8062 C.3     1  UNL1        0.1625
     32 C          23.0778   73.9001    2.8399 C.3     1  UNL1        0.1686
     33 C          24.2259   74.6271    2.1346 C.3     1  UNL1        0.1760
     34 O          20.9734   72.7755    2.4438 O.3     1  UNL1       -0.3801
     35 O          23.5757   72.7188    3.4707 O.3     1  UNL1       -0.3794
     36 O          24.7637   73.7857    1.1124 O.3     1  UNL1       -0.3263
     37 H          20.5182   73.2598    3.1463 H       1  UNL1        0.2105
     38 H          24.2554   72.8855    4.1387 H       1  UNL1        0.2105
     39 C          21.0291   71.1664   -0.3035 C.2     1  UNL1        0.2231
     40 C          20.0096   70.8481   -1.3655 C.3     1  UNL1        0.0946
     41 N          21.6709   72.3513   -0.3177 N.am    1  UNL1       -0.2994
     42 O          21.2732   70.3556    0.5656 O.2     1  UNL1       -0.2751
     43 H          21.4767   72.9993   -1.0130 H       1  UNL1        0.1496
     44 C          25.3202   74.9585    3.1510 C.3     1  UNL1        0.1693
     45 O          26.2528   73.8777    3.2174 O.3     1  UNL1       -0.3794
     46 H          26.9759   74.0193    3.8436 H       1  UNL1        0.2105
@<TRIPOS>BOND
     1    29    30    1
     2    30    41    1
     3    30    31    1
     4    31    34    1
     5    31    32    1
     6    32    35    1
     7    32    33    1
     8    33    36    1
     9    33    44    1
    10    39    40    1
    11    39    42    2
    12    39    41   am
    13    41    43    1
    14    29    28    1
    15    34    37    1
    16    35    38    1
    17    29    36    1
    18    44    45    1
    19    45    46    1
    20    15     6    1
    21    15    16   ar
    22    16    21    2
    23    16    17   ar
    24    17    23    1
    25    17    18   ar
    26    18    19   ar
    27    19    20   ar
    28    15    20   ar
    29    18    22    2
    30     6     7    1
    31     6    11    1
    32     7     9    1
    33     7     8    1
    34     8    13    1
    35     9    10    1
    36     9    12    1
    37    10     5    1
    38    10    11    1
    39    12    14    1
    40     5     4    1
    41     4     1    1
    42     1     2    1
    43     1    24    1
    44     1     3    2
    45    24    25    1
    46    28    25    1
    47    25    26    1
    48    25    27    2
@<TRIPOS>MOLECULE
UD2
 46 48 0 0 0
SMALL
GASTEIGER

@<TRIPOS>ATOM
      1 P          21.1576   71.4418   -1.8616 P.3     1  UNL1        0.2189
      2 O          20.9984   70.5925   -0.5035 O.3     1  UNL1       -0.4371
      3 O          22.4150   71.0576   -2.5400 O.2     1  UNL1       -0.5170
      4 O          19.9093   71.1390   -2.8332 O.3     1  UNL1       -0.3112
      5 C          18.9037   70.1711   -2.5276 C.3     1  UNL1        0.1811
      6 C          17.1559   70.4128   -5.6619 C.3     1  UNL1        0.2383
      7 C          16.9285   68.9508   -5.2006 C.3     1  UNL1        0.1895
      8 O          15.6682   68.4604   -5.6622 O.3     1  UNL1       -0.3779
      9 C          16.9354   69.0913   -3.6587 C.3     1  UNL1        0.1713
     10 C          17.6742   70.4192   -3.4049 C.3     1  UNL1        0.1764
     11 O          18.0814   70.9333   -4.6830 O.3     1  UNL1       -0.3308
     12 O          15.5992   69.1582   -3.1579 O.3     1  UNL1       -0.3794
     13 H          15.4803   67.5492   -5.3995 H       1  UNL1        0.2106
     14 H          15.0694   68.3708   -3.3420 H       1  UNL1        0.2105
     15 N          17.7484   70.4451   -7.0009 N.ar    1  UNL1       -0.2551
     16 C          16.9498   70.4485   -8.0830 C.ar    1  UNL1        0.3323
     17 N          17.4670   70.4776   -9.3256 N.ar    1  UNL1       -0.2743
     18 C          18.8034   70.5059   -9.5040 C.ar    1  UNL1        0.2626
     19 C          19.6558   70.5037   -8.3737 C.ar    1  UNL1        0.0795
     20 C          19.1099   70.4784   -7.1397 C.ar    1  UNL1        0.0869
     21 O          15.7430   70.4234   -7.9371 O.2     1  UNL1       -0.2464
     22 O          19.2727   70.5327  -10.6281 O.2     1  UNL1       -0.2670
     23 H          16.8769   70.4785  -10.0950 H       1  UNL1        0.1734
     24 O          21.1949   73.0131   -1.5111 O.3     1  UNL1       -0.2703
     25 P          22.2592   73.9683   -0.7708 P.3     1  UNL1        0.2208
     26 O          23.6938   73.2379   -0.7245 O.3     1  UNL1       -0.4371
     27 O          22.3787   75.2424   -1.5130 O.2     1  UNL1       -0.5170
     28 O          21.7593   74.2662    0.7306 O.3     1  UNL1       -0.2865
     29 C          20.6798   73.5611    1.3459 C.3     1  UNL1        0.2611
     30 C          19.7167   74.5616    1.9896 C.3     1  UNL1        0.1582
     31 C          20.4546   75.3330    3.0882 C.3     1  UNL1        0.1625
     32 C          21.0214   74.3372    4.1037 C.3     1  UNL1        0.1686
     33 C          21.9344   73.3452    3.3783 C.3     1  UNL1        0.1760
     34 O          19.5435   76.2178    3.7442 O.3     1  UNL1       -0.3801
     35 O          19.9488   73.6304    4.7294 O.3     1  UNL1       -0.3794
     36 O          21.1950   72.6840    2.3497 O.3     1  UNL1       -0.3263
     37 H          19.9443   76.7400    4.4526 H       1  UNL1        0.2105
     38 H          20.2355   72.9802    5.3860 H       1  UNL1        0.2105
     39 C          17.9565   75.4334    0.5476 C.2     1  UNL1        0.2231
     40 C          17.4589   76.3971   -0.4974 C.3     1  UNL1        0.0946
     41 N          19.2336   75.4993    0.9728 N.am    1  UNL1       -0.2994
     42 O          17.2074   74.5968    1.0073 O.2     1  UNL1       -0.2751
     43 H          19.8331   76.1673    0.6049 H       1  UNL1        0.1496
     44 C          22.4577   72.3104    4.3762 C.3     1  UNL1        0.1693
     45 O          22.3325   72.8226    5.7045 O.3     1  UNL1       -0.3794
     46 H          22.6460   72.2180    6.3910 H       1  UNL1        0.2105
@<TRIPOS>BOND
     1    29    30    1
     2    30    41    1
     3    30    31    1
     4    31    34    1
     5    31    32    1
     6    32    35    1
     7    32    33    1
     8    33    36    1
     9    33    44    1
    10    39    40    1
    11    39    42    2
    12    39    41   am
    13    41    43    1
    14    29    28    1
    15    34    37    1
    16    35    38    1
    17    29    36    1
    18    44    45    1
    19    45    46    1
    20    15     6    1
    21    15    16   ar
    22    16    21    2
    23    16    17   ar
    24    17    23    1
    25    17    18   ar
    26    18    19   ar
    27    19    20   ar
    28    15    20   ar
    29    18    22    2
    30     6     7    1
    31     6    11    1
    32     7     9    1
    33     7     8    1
    34     8    13    1
    35     9    10    1
    36     9    12    1
    37    10     5    1
    38    10    11    1
    39    12    14    1
    40     5     4    1
    41     4     1    1
    42     1     2    1
    43     1    24    1
    44     1     3    2
    45    24    25    1
    46    28    25    1
    47    25    26    1
    48    25    27    2
@<TRIPOS>MOLECULE
UD2
 46 48 0 0 0
SMALL
GASTEIGER

@<TRIPOS>ATOM
      1 P          21.0428   72.0537   -0.3065 P.3     1  UNL1        0.2189
      2 O          20.8722   70.6189    0.4032 O.3     1  UNL1       -0.4371
      3 O          22.2337   72.0322   -1.1842 O.2     1  UNL1       -0.5170
      4 O          19.7332   72.3761   -1.1865 O.3     1  UNL1       -0.3112
      5 C          19.7530   72.4433   -2.6136 C.3     1  UNL1        0.1811
      6 C          17.7211   70.9003   -5.1488 C.3     1  UNL1        0.2383
      7 C          18.2833   69.7142   -4.3247 C.3     1  UNL1        0.1895
      8 O          17.3654   68.6192   -4.3152 O.3     1  UNL1       -0.3779
      9 C          18.4179   70.3344   -2.9123 C.3     1  UNL1        0.1713
     10 C          18.4549   71.8529   -3.1698 C.3     1  UNL1        0.1764
     11 O          18.3995   72.0472   -4.5920 O.3     1  UNL1       -0.3308
     12 O          17.2892   69.9906   -2.1069 O.3     1  UNL1       -0.3794
     13 H          17.6725   67.8525   -3.8127 H       1  UNL1        0.2106
     14 H          17.1833   69.0407   -1.9617 H       1  UNL1        0.2105
     15 N          18.0499   70.7445   -6.5675 N.ar    1  UNL1       -0.2551
     16 C          17.0613   70.6644   -7.4758 C.ar    1  UNL1        0.3323
     17 N          17.3343   70.5207   -8.7861 N.ar    1  UNL1       -0.2743
     18 C          18.6129   70.4564   -9.2099 C.ar    1  UNL1        0.2626
     19 C          19.6635   70.5404   -8.2648 C.ar    1  UNL1        0.0795
     20 C          19.3608   70.6885   -6.9579 C.ar    1  UNL1        0.0869
     21 O          15.9037   70.7211   -7.1080 O.2     1  UNL1       -0.2464
     22 O          18.8614   70.3268  -10.3956 O.2     1  UNL1       -0.2670
     23 H          16.6095   70.4634   -9.4276 H       1  UNL1        0.1734
     24 O          21.2256   73.1910    0.8189 O.3     1  UNL1       -0.2703
     25 P          20.7149   73.3534    2.3374 P.3     1  UNL1        0.2208
     26 O          19.4193   74.3097    2.3679 O.3     1  UNL1       -0.4371
     27 O          20.3598   72.0252    2.8834 O.2     1  UNL1       -0.5170
     28 O          21.8852   74.0059    3.2302 O.3     1  UNL1       -0.2865
     29 C          22.8914   73.2293    3.8827 C.3     1  UNL1        0.2611
     30 C          22.9938   73.6539    5.3496 C.3     1  UNL1        0.1582
     31 C          23.4227   75.1229    5.4182 C.3     1  UNL1        0.1625
     32 C          24.7485   75.2919    4.6711 C.3     1  UNL1        0.1686
     33 C          24.5783   74.8040    3.2299 C.3     1  UNL1        0.1760
     34 O          23.5921   75.5072    6.7845 O.3     1  UNL1       -0.3801
     35 O          25.7635   74.5232    5.3194 O.3     1  UNL1       -0.3794
     36 O          24.1489   73.4411    3.2376 O.3     1  UNL1       -0.3263
     37 H          23.8633   76.4279    6.9029 H       1  UNL1        0.2105
     38 H          26.6323   74.5828    4.8980 H       1  UNL1        0.2105
     39 C          20.8232   74.5255    6.0327 C.2     1  UNL1        0.2231
     40 C          19.4821   74.3618    6.6983 C.3     1  UNL1        0.0946
     41 N          21.6896   73.4939    5.9976 N.am    1  UNL1       -0.2994
     42 O          21.1243   75.5869    5.5275 O.2     1  UNL1       -0.2751
     43 H          21.4497   72.6455    6.4022 H       1  UNL1        0.1496
     44 C          25.9147   74.9138    2.4934 C.3     1  UNL1        0.1693
     45 O          25.7066   75.5173    1.2148 O.3     1  UNL1       -0.3794
     46 H          26.5131   75.6188    0.6911 H       1  UNL1        0.2105
@<TRIPOS>BOND
     1    29    30    1
     2    30    41    1
     3    30    31    1
     4    31    34    1
     5    31    32    1
     6    32    35    1
     7    32    33    1
     8    33    36    1
     9    33    44    1
    10    39    40    1
    11    39    42    2
    12    39    41   am
    13    41    43    1
    14    29    28    1
    15    34    37    1
    16    35    38    1
    17    29    36    1
    18    44    45    1
    19    45    46    1
    20    15     6    1
    21    15    16   ar
    22    16    21    2
    23    16    17   ar
    24    17    23    1
    25    17    18   ar
    26    18    19   ar
    27    19    20   ar
    28    15    20   ar
    29    18    22    2
    30     6     7    1
    31     6    11    1
    32     7     9    1
    33     7     8    1
    34     8    13    1
    35     9    10    1
    36     9    12    1
    37    10     5    1
    38    10    11    1
    39    12    14    1
    40     5     4    1
    41     4     1    1
    42     1     2    1
    43     1    24    1
    44     1     3    2
    45    24    25    1
    46    28    25    1
    47    25    26    1
    48    25    27    2
@<TRIPOS>MOLECULE
UD2
 46 48 0 0 0
SMALL
GASTEIGER

@<TRIPOS>ATOM
      1 P          22.4400   71.4122   -2.9956 P.3     1  UNL1        0.2189
      2 O          24.0093   71.2668   -3.3235 O.3     1  UNL1       -0.4371
      3 O          21.7592   70.1251   -3.2582 O.2     1  UNL1       -0.5170
      4 O          22.2503   71.8137   -1.4476 O.3     1  UNL1       -0.3112
      5 C          23.0602   72.7925   -0.7937 C.3     1  UNL1        0.1811
      6 C          21.9214   74.6030    2.0980 C.3     1  UNL1        0.2383
      7 C          22.9594   75.5428    1.4336 C.3     1  UNL1        0.1895
      8 O          22.6290   76.9134    1.6664 O.3     1  UNL1       -0.3779
      9 C          22.8092   75.1854   -0.0654 C.3     1  UNL1        0.1713
     10 C          22.1610   73.7878   -0.0562 C.3     1  UNL1        0.1764
     11 O          22.0173   73.3919    1.3172 O.3     1  UNL1       -0.3308
     12 O          21.9580   76.1276   -0.7201 O.3     1  UNL1       -0.3794
     13 H          23.2495   77.5405    1.2708 H       1  UNL1        0.2106
     14 H          22.2894   77.0356   -0.7041 H       1  UNL1        0.2105
     15 N          22.2780   74.3462    3.4951 N.ar    1  UNL1       -0.2551
     16 C          23.5733   74.2823    3.8513 C.ar    1  UNL1        0.3323
     17 N          23.9300   74.0475    5.1280 N.ar    1  UNL1       -0.2743
     18 C          22.9862   73.8735    6.0753 C.ar    1  UNL1        0.2626
     19 C          21.6188   73.9391    5.7146 C.ar    1  UNL1        0.0795
     20 C          21.2900   74.1802    4.4280 C.ar    1  UNL1        0.0869
     21 O          24.4351   74.4376    3.0077 O.2     1  UNL1       -0.2464
     22 O          23.3077   73.6613    7.2312 O.2     1  UNL1       -0.2670
     23 H          24.8685   74.0034    5.3675 H       1  UNL1        0.1734
     24 O          21.8003   72.5582   -3.9288 O.3     1  UNL1       -0.2703
     25 P          21.4152   72.6428   -5.4900 P.3     1  UNL1        0.2208
     26 O          21.1855   74.1824   -5.9030 O.3     1  UNL1       -0.4371
     27 O          22.5138   72.0738   -6.3010 O.2     1  UNL1       -0.5170
     28 O          20.0639   71.8083   -5.7553 O.3     1  UNL1       -0.2865
     29 C          18.9492   72.3396   -6.4738 C.3     1  UNL1        0.2611
     30 C          17.6479   71.8623   -5.8246 C.3     1  UNL1        0.1582
     31 C          17.5734   70.3349   -5.9137 C.3     1  UNL1        0.1625
     32 C          17.6778   69.9142   -7.3822 C.3     1  UNL1        0.1686
     33 C          18.9783   70.4667   -7.9715 C.3     1  UNL1        0.1760
     34 O          16.3275   69.8857   -5.3757 O.3     1  UNL1       -0.3801
     35 O          16.5639   70.4360   -8.1089 O.3     1  UNL1       -0.3794
     36 O          18.9977   71.8885   -7.8290 O.3     1  UNL1       -0.3263
     37 H          16.2126   68.9258   -5.3993 H       1  UNL1        0.2105
     38 H          16.5654   70.2085   -9.0493 H       1  UNL1        0.2105
     39 C          18.0821   71.4381   -3.4647 C.2     1  UNL1        0.2231
     40 C          18.0575   71.8592   -2.0188 C.3     1  UNL1        0.0946
     41 N          17.6234   72.2725   -4.4183 N.am    1  UNL1       -0.2994
     42 O          18.5149   70.3469   -3.7716 O.2     1  UNL1       -0.2751
     43 H          17.2764   73.1446   -4.1733 H       1  UNL1        0.1496
     44 C          19.0616   70.1013   -9.4547 C.3     1  UNL1        0.1693
     45 O          18.4739   71.1433  -10.2365 O.3     1  UNL1       -0.3794
     46 H          18.4915   70.9786  -11.1892 H       1  UNL1        0.2105
@<TRIPOS>BOND
     1    29    30    1
     2    30    41    1
     3    30    31    1
     4    31    34    1
     5    31    32    1
     6    32    35    1
     7    32    33    1
     8    33    36    1
     9    33    44    1
    10    39    40    1
    11    39    42    2
    12    39    41   am
    13    41    43    1
    14    29    28    1
    15    34    37    1
    16    35    38    1
    17    29    36    1
    18    44    45    1
    19    45    46    1
    20    15     6    1
    21    15    16   ar
    22    16    21    2
    23    16    17   ar
    24    17    23    1
    25    17    18   ar
    26    18    19   ar
    27    19    20   ar
    28    15    20   ar
    29    18    22    2
    30     6     7    1
    31     6    11    1
    32     7     9    1
    33     7     8    1
    34     8    13    1
    35     9    10    1
    36     9    12    1
    37    10     5    1
    38    10    11    1
    39    12    14    1
    40     5     4    1
    41     4     1    1
    42     1     2    1
    43     1    24    1
    44     1     3    2
    45    24    25    1
    46    28    25    1
    47    25    26    1
    48    25    27    2
@<TRIPOS>MOLECULE
UD2
 46 48 0 0 0
SMALL
GASTEIGER

@<TRIPOS>ATOM
      1 P          21.5675   71.2728   -0.1870 P.3     1  UNL1        0.2189
      2 O          21.5457   70.0807    0.8946 O.3     1  UNL1       -0.4371
      3 O          22.7861   71.1628   -1.0187 O.2     1  UNL1       -0.5170
      4 O          20.2644   71.1677   -1.1275 O.3     1  UNL1       -0.3112
      5 C          20.3042   71.3902   -2.5383 C.3     1  UNL1        0.1811
      6 C          17.9384   70.7305   -5.1659 C.3     1  UNL1        0.2383
      7 C          18.1555   69.3563   -4.4828 C.3     1  UNL1        0.1895
      8 O          16.9751   68.5550   -4.5626 O.3     1  UNL1       -0.3779
      9 C          18.4485   69.7638   -3.0181 C.3     1  UNL1        0.1713
     10 C          18.8965   71.2344   -3.1188 C.3     1  UNL1        0.1764
     11 O          18.9005   71.5860   -4.5116 O.3     1  UNL1       -0.3308
     12 O          17.2663   69.6539   -2.2237 O.3     1  UNL1       -0.3794
     13 H          17.0613   67.6851   -4.1497 H       1  UNL1        0.2106
     14 H          16.9065   68.7581   -2.1744 H       1  UNL1        0.2105
     15 N          18.2173   70.6429   -6.6010 N.ar    1  UNL1       -0.2551
     16 C          17.2046   70.4590   -7.4667 C.ar    1  UNL1        0.3323
     17 N          17.4317   70.3746   -8.7909 N.ar    1  UNL1       -0.2743
     18 C          18.6875   70.4761   -9.2719 C.ar    1  UNL1        0.2626
     19 C          19.7629   70.6709   -8.3721 C.ar    1  UNL1        0.0795
     20 C          19.5056   70.7560   -7.0500 C.ar    1  UNL1        0.0869
     21 O          16.0672   70.3660   -7.0471 O.2     1  UNL1       -0.2464
     22 O          18.8944   70.4003  -10.4702 O.2     1  UNL1       -0.2670
     23 H          16.6902   70.2406   -9.4011 H       1  UNL1        0.1734
     24 O          21.5646   72.6907    0.5765 O.3     1  UNL1       -0.2703
     25 P          20.6147   73.3571    1.6930 P.3     1  UNL1        0.2208
     26 O          19.2106   73.7736    1.0232 O.3     1  UNL1       -0.4371
     27 O          20.3725   72.3834    2.7800 O.2     1  UNL1       -0.5170
     28 O          21.3320   74.6669    2.2952 O.3     1  UNL1       -0.2865
     29 C          22.6227   75.1110    1.8733 C.3     1  UNL1        0.2611
     30 C          23.6847   74.5943    2.8469 C.3     1  UNL1        0.1582
     31 C          23.4212   75.1835    4.2361 C.3     1  UNL1        0.1625
     32 C          23.4177   76.7115    4.1385 C.3     1  UNL1        0.1686
     33 C          22.3657   77.1467    3.1149 C.3     1  UNL1        0.1760
     34 O          24.4507   74.7647    5.1351 O.3     1  UNL1       -0.3801
     35 O          24.7065   77.1665    3.7225 O.3     1  UNL1       -0.3794
     36 O          22.6513   76.5397    1.8531 O.3     1  UNL1       -0.3263
     37 H          24.3466   75.1012    6.0357 H       1  UNL1        0.2105
     38 H          24.7768   78.1278    3.6386 H       1  UNL1        0.2105
     39 C          24.6564   72.3889    2.4865 C.2     1  UNL1        0.2231
     40 C          24.5875   70.8859    2.5556 C.3     1  UNL1        0.0946
     41 N          23.6168   73.1323    2.9142 N.am    1  UNL1       -0.2994
     42 O          25.6482   72.9313    2.0457 O.2     1  UNL1       -0.2751
     43 H          22.8233   72.6991    3.2658 H       1  UNL1        0.1496
     44 C          22.3970   78.6691    2.9675 C.3     1  UNL1        0.1693
     45 O          22.7592   79.2619    4.2165 O.3     1  UNL1       -0.3794
     46 H          22.7989   80.2279    4.1971 H       1  UNL1        0.2105
@<TRIPOS>BOND
     1    29    30    1
     2    30    41    1
     3    30    31    1
     4    31    34    1
     5    31    32    1
     6    32    35    1
     7    32    33    1
     8    33    36    1
     9    33    44    1
    10    39    40    1
    11    39    42    2
    12    39    41   am
    13    41    43    1
    14    29    28    1
    15    34    37    1
    16    35    38    1
    17    29    36    1
    18    44    45    1
    19    45    46    1
    20    15     6    1
    21    15    16   ar
    22    16    21    2
    23    16    17   ar
    24    17    23    1
    25    17    18   ar
    26    18    19   ar
    27    19    20   ar
    28    15    20   ar
    29    18    22    2
    30     6     7    1
    31     6    11    1
    32     7     9    1
    33     7     8    1
    34     8    13    1
    35     9    10    1
    36     9    12    1
    37    10     5    1
    38    10    11    1
    39    12    14    1
    40     5     4    1
    41     4     1    1
    42     1     2    1
    43     1    24    1
    44     1     3    2
    45    24    25    1
    46    28    25    1
    47    25    26    1
    48    25    27    2
@<TRIPOS>MOLECULE
UD2
 46 48 0 0 0
SMALL
GASTEIGER

@<TRIPOS>ATOM
      1 P          22.1107   71.1503   -2.6924 P.3     1  UNL1        0.2189
      2 O          23.6931   70.8563   -2.7211 O.3     1  UNL1       -0.4371
      3 O          21.8252   72.3915   -3.4451 O.2     1  UNL1       -0.5170
      4 O          21.3239   69.9189   -3.3694 O.3     1  UNL1       -0.3112
      5 C          20.4311   70.0799   -4.4732 C.3     1  UNL1        0.1811
      6 C          16.9782   71.0354   -4.7921 C.3     1  UNL1        0.2383
      7 C          16.9820   69.5035   -5.0275 C.3     1  UNL1        0.1895
      8 O          15.7563   68.9166   -4.5862 O.3     1  UNL1       -0.3779
      9 C          18.1658   69.0414   -4.1429 C.3     1  UNL1        0.1713
     10 C          19.0116   70.3146   -3.9506 C.3     1  UNL1        0.1764
     11 O          18.3815   71.3643   -4.7019 O.3     1  UNL1       -0.3308
     12 O          17.6902   68.5615   -2.8841 O.3     1  UNL1       -0.3794
     13 H          15.7102   67.9592   -4.7129 H       1  UNL1        0.2106
     14 H          17.1042   67.7955   -2.9503 H       1  UNL1        0.2105
     15 N          16.3569   71.7294   -5.9223 N.ar    1  UNL1       -0.2551
     16 C          16.4760   71.2228   -7.1624 C.ar    1  UNL1        0.3323
     17 N          15.9154   71.8396   -8.2196 N.ar    1  UNL1       -0.2743
     18 C          15.2196   72.9820   -8.0483 C.ar    1  UNL1        0.2626
     19 C          15.0854   73.5259   -6.7482 C.ar    1  UNL1        0.0795
     20 C          15.6542   72.8842   -5.7060 C.ar    1  UNL1        0.0869
     21 O          17.1003   70.1933   -7.3317 O.2     1  UNL1       -0.2464
     22 O          14.7115   73.5411   -9.0042 O.2     1  UNL1       -0.2670
     23 H          16.0120   71.4614   -9.1071 H       1  UNL1        0.1734
     24 O          21.6243   71.3234   -1.1670 O.3     1  UNL1       -0.2703
     25 P          22.3530   71.1805    0.2618 P.3     1  UNL1        0.2208
     26 O          21.7054   69.9493    1.0733 O.3     1  UNL1       -0.4371
     27 O          23.7966   70.9304    0.0568 O.2     1  UNL1       -0.5170
     28 O          22.1574   72.5399    1.1022 O.3     1  UNL1       -0.2865
     29 C          22.0548   72.5663    2.5270 C.3     1  UNL1        0.2611
     30 C          21.2593   73.8004    2.9595 C.3     1  UNL1        0.1582
     31 C          22.0126   75.0611    2.5240 C.3     1  UNL1        0.1625
     32 C          23.4194   75.0364    3.1278 C.3     1  UNL1        0.1686
     33 C          24.1318   73.7543    2.6887 C.3     1  UNL1        0.1760
     34 O          21.3140   76.2186    2.9880 O.3     1  UNL1       -0.3801
     35 O          23.3281   75.0683    4.5532 O.3     1  UNL1       -0.3794
     36 O          23.3639   72.6207    3.0976 O.3     1  UNL1       -0.3263
     37 H          21.7355   77.0549    2.7468 H       1  UNL1        0.2105
     38 H          24.1843   75.0542    5.0034 H       1  UNL1        0.2105
     39 C          19.7501   74.3752    1.1347 C.2     1  UNL1        0.2231
     40 C          18.3918   74.3512    0.4844 C.3     1  UNL1        0.0946
     41 N          19.9377   73.7768    2.3276 N.am    1  UNL1       -0.2994
     42 O          20.6764   74.9335    0.5848 O.2     1  UNL1       -0.2751
     43 H          19.1972   73.3312    2.7681 H       1  UNL1        0.1496
     44 C          25.5165   73.6932    3.3361 C.3     1  UNL1        0.1693
     45 O          26.3525   74.7052    2.7711 O.3     1  UNL1       -0.3794
     46 H          27.2480   74.7252    3.1354 H       1  UNL1        0.2105
@<TRIPOS>BOND
     1    29    30    1
     2    30    41    1
     3    30    31    1
     4    31    34    1
     5    31    32    1
     6    32    35    1
     7    32    33    1
     8    33    36    1
     9    33    44    1
    10    39    40    1
    11    39    42    2
    12    39    41   am
    13    41    43    1
    14    29    28    1
    15    34    37    1
    16    35    38    1
    17    29    36    1
    18    44    45    1
    19    45    46    1
    20    15     6    1
    21    15    16   ar
    22    16    21    2
    23    16    17   ar
    24    17    23    1
    25    17    18   ar
    26    18    19   ar
    27    19    20   ar
    28    15    20   ar
    29    18    22    2
    30     6     7    1
    31     6    11    1
    32     7     9    1
    33     7     8    1
    34     8    13    1
    35     9    10    1
    36     9    12    1
    37    10     5    1
    38    10    11    1
    39    12    14    1
    40     5     4    1
    41     4     1    1
    42     1     2    1
    43     1    24    1
    44     1     3    2
    45    24    25    1
    46    28    25    1
    47    25    26    1
    48    25    27    2
@<TRIPOS>MOLECULE
UD2
 46 48 0 0 0
SMALL
GASTEIGER

@<TRIPOS>ATOM
      1 P          23.1285   71.7774   -3.3068 P.3     1  UNL1        0.2189
      2 O          23.4406   72.5761   -4.6691 O.3     1  UNL1       -0.4371
      3 O          24.1951   70.7816   -3.0626 O.2     1  UNL1       -0.5170
      4 O          23.0719   72.8158   -2.0771 O.3     1  UNL1       -0.3112
      5 C          22.6239   72.4496   -0.7706 C.3     1  UNL1        0.1811
      6 C          24.1904   72.6060    2.4633 C.3     1  UNL1        0.2383
      7 C          23.9180   71.0975    2.2348 C.3     1  UNL1        0.1895
      8 O          24.9051   70.2964    2.8872 O.3     1  UNL1       -0.3779
      9 C          24.0362   70.9751    0.6958 C.3     1  UNL1        0.1713
     10 C          23.8184   72.4125    0.1859 C.3     1  UNL1        0.1764
     11 O          23.5528   73.2372    1.3316 O.3     1  UNL1       -0.3308
     12 O          25.3354   70.5061    0.3310 O.3     1  UNL1       -0.3794
     13 H          24.7774   69.3448    2.7739 H       1  UNL1        0.2106
     14 H          25.5488   69.6286    0.6760 H       1  UNL1        0.2105
     15 N          23.5809   73.0561    3.7167 N.ar    1  UNL1       -0.2551
     16 C          22.3071   72.7259    3.9945 C.ar    1  UNL1        0.3323
     17 N          21.7214   73.1261    5.1387 N.ar    1  UNL1       -0.2743
     18 C          22.4097   73.8678    6.0301 C.ar    1  UNL1        0.2626
     19 C          23.7517   74.2218    5.7510 C.ar    1  UNL1        0.0795
     20 C          24.3149   73.8034    4.5981 C.ar    1  UNL1        0.0869
     21 O          21.6745   72.0574    3.2000 O.2     1  UNL1       -0.2464
     22 O          21.8810   74.2303    7.0663 O.2     1  UNL1       -0.2670
     23 H          20.8018   72.8802    5.3228 H       1  UNL1        0.1734
     24 O          21.7109   71.0247   -3.4383 O.3     1  UNL1       -0.2703
     25 P          20.1796   71.4826   -3.2419 P.3     1  UNL1        0.2208
     26 O          19.6273   70.9188   -1.8381 O.3     1  UNL1       -0.4371
     27 O          20.1020   72.9599   -3.2444 O.2     1  UNL1       -0.5170
     28 O          19.2855   70.8957   -4.4456 O.3     1  UNL1       -0.2865
     29 C          18.3700   71.6951   -5.1966 C.3     1  UNL1        0.2611
     30 C          17.0131   70.9903   -5.2653 C.3     1  UNL1        0.1582
     31 C          17.1769   69.6563   -6.0001 C.3     1  UNL1        0.1625
     32 C          17.7651   69.9197   -7.3890 C.3     1  UNL1        0.1686
     33 C          19.0935   70.6659   -7.2384 C.3     1  UNL1        0.1760
     34 O          15.9013   69.0252   -6.1334 O.3     1  UNL1       -0.3801
     35 O          16.8541   70.7141   -8.1507 O.3     1  UNL1       -0.3794
     36 O          18.8761   71.8819   -6.5200 O.3     1  UNL1       -0.3263
     37 H          15.9304   68.1731   -6.5899 H       1  UNL1        0.2105
     38 H          17.1632   70.9208   -9.0439 H       1  UNL1        0.2105
     39 C          16.7571   69.5604   -3.3089 C.2     1  UNL1        0.2231
     40 C          16.2511   69.3067   -1.9131 C.3     1  UNL1        0.0946
     41 N          16.5203   70.7443   -3.9076 N.am    1  UNL1       -0.2994
     42 O          17.3784   68.6986   -3.8950 O.2     1  UNL1       -0.2751
     43 H          16.0228   71.4332   -3.4397 H       1  UNL1        0.1496
     44 C          19.6584   70.9855   -8.6237 C.3     1  UNL1        0.1693
     45 O          19.3023   69.9447   -9.5360 O.3     1  UNL1       -0.3794
     46 H          19.6282   70.0814  -10.4361 H       1  UNL1        0.2105
@<TRIPOS>BOND
     1    29    30    1
     2    30    41    1
     3    30    31    1
     4    31    34    1
     5    31    32    1
     6    32    35    1
     7    32    33    1
     8    33    36    1
     9    33    44    1
    10    39    40    1
    11    39    42    2
    12    39    41   am
    13    41    43    1
    14    29    28    1
    15    34    37    1
    16    35    38    1
    17    29    36    1
    18    44    45    1
    19    45    46    1
    20    15     6    1
    21    15    16   ar
    22    16    21    2
    23    16    17   ar
    24    17    23    1
    25    17    18   ar
    26    18    19   ar
    27    19    20   ar
    28    15    20   ar
    29    18    22    2
    30     6     7    1
    31     6    11    1
    32     7     9    1
    33     7     8    1
    34     8    13    1
    35     9    10    1
    36     9    12    1
    37    10     5    1
    38    10    11    1
    39    12    14    1
    40     5     4    1
    41     4     1    1
    42     1     2    1
    43     1    24    1
    44     1     3    2
    45    24    25    1
    46    28    25    1
    47    25    26    1
    48    25    27    2
@<TRIPOS>MOLECULE
UD2
 46 48 0 0 0
SMALL
GASTEIGER

@<TRIPOS>ATOM
      1 P          21.1685   71.3857   -1.8844 P.3     1  UNL1        0.2189
      2 O          20.9592   70.6342   -0.4764 O.3     1  UNL1       -0.4371
      3 O          22.3463   70.8182   -2.5769 O.2     1  UNL1       -0.5170
      4 O          19.8589   71.1843   -2.7999 O.3     1  UNL1       -0.3112
      5 C          18.8770   70.1792   -2.5413 C.3     1  UNL1        0.1811
      6 C          17.1591   70.3628   -5.6959 C.3     1  UNL1        0.2383
      7 C          16.9168   68.9132   -5.2040 C.3     1  UNL1        0.1895
      8 O          15.6571   68.4216   -5.6659 O.3     1  UNL1       -0.3779
      9 C          16.9109   69.0884   -3.6656 C.3     1  UNL1        0.1713
     10 C          17.6572   70.4164   -3.4351 C.3     1  UNL1        0.1764
     11 O          18.0796   70.8985   -4.7206 O.3     1  UNL1       -0.3308
     12 O          15.5708   69.1762   -3.1786 O.3     1  UNL1       -0.3794
     13 H          15.4601   67.5180   -5.3845 H       1  UNL1        0.2106
     14 H          15.0369   68.3887   -3.3499 H       1  UNL1        0.2105
     15 N          17.7638   70.3605   -7.0299 N.ar    1  UNL1       -0.2551
     16 C          16.9793   70.4647   -8.1173 C.ar    1  UNL1        0.3323
     17 N          17.5079   70.4651   -9.3554 N.ar    1  UNL1       -0.2743
     18 C          18.8419   70.3622   -9.5239 C.ar    1  UNL1        0.2626
     19 C          19.6796   70.2529   -8.3880 C.ar    1  UNL1        0.0795
     20 C          19.1230   70.2594   -7.1585 C.ar    1  UNL1        0.0869
     21 O          15.7748   70.5584   -7.9804 O.2     1  UNL1       -0.2464
     22 O          19.3216   70.3629  -10.6439 O.2     1  UNL1       -0.2670
     23 H          16.9278   70.5398  -10.1287 H       1  UNL1        0.1734
     24 O          21.4041   72.9574   -1.6244 O.3     1  UNL1       -0.2703
     25 P          20.4624   74.2600   -1.7211 P.3     1  UNL1        0.2208
     26 O          19.2602   74.1327   -0.6570 O.3     1  UNL1       -0.4371
     27 O          21.2600   75.4691   -1.4211 O.2     1  UNL1       -0.5170
     28 O          19.8540   74.3731   -3.2077 O.3     1  UNL1       -0.2865
     29 C          20.4449   75.1753   -4.2317 C.3     1  UNL1        0.2611
     30 C          19.4259   75.4096   -5.3494 C.3     1  UNL1        0.1582
     31 C          19.0473   74.0631   -5.9739 C.3     1  UNL1        0.1625
     32 C          20.3166   73.3728   -6.4808 C.3     1  UNL1        0.1686
     33 C          21.3015   73.2169   -5.3191 C.3     1  UNL1        0.1760
     34 O          18.1520   74.2789   -7.0671 O.3     1  UNL1       -0.3801
     35 O          20.9125   74.1647   -7.5099 O.3     1  UNL1       -0.3794
     36 O          21.5877   74.5021   -4.7637 O.3     1  UNL1       -0.3263
     37 H          17.8696   73.4669   -7.5099 H       1  UNL1        0.2105
     38 H          21.7236   73.7871   -7.8778 H       1  UNL1        0.2105
     39 C          17.1919   75.2890   -4.3838 C.2     1  UNL1        0.2231
     40 C          15.9607   75.9423   -3.8130 C.3     1  UNL1        0.0946
     41 N          18.2285   76.0459   -4.7945 N.am    1  UNL1       -0.2994
     42 O          17.2509   74.0805   -4.4742 O.2     1  UNL1       -0.2751
     43 H          18.1813   77.0122   -4.7233 H       1  UNL1        0.1496
     44 C          22.5961   72.5820   -5.8301 C.3     1  UNL1        0.1693
     45 O          23.5442   72.5072   -4.7634 O.3     1  UNL1       -0.3794
     46 H          24.3909   72.1142   -5.0158 H       1  UNL1        0.2105
@<TRIPOS>BOND
     1    29    30    1
     2    30    41    1
     3    30    31    1
     4    31    34    1
     5    31    32    1
     6    32    35    1
     7    32    33    1
     8    33    36    1
     9    33    44    1
    10    39    40    1
    11    39    42    2
    12    39    41   am
    13    41    43    1
    14    29    28    1
    15    34    37    1
    16    35    38    1
    17    29    36    1
    18    44    45    1
    19    45    46    1
    20    15     6    1
    21    15    16   ar
    22    16    21    2
    23    16    17   ar
    24    17    23    1
    25    17    18   ar
    26    18    19   ar
    27    19    20   ar
    28    15    20   ar
    29    18    22    2
    30     6     7    1
    31     6    11    1
    32     7     9    1
    33     7     8    1
    34     8    13    1
    35     9    10    1
    36     9    12    1
    37    10     5    1
    38    10    11    1
    39    12    14    1
    40     5     4    1
    41     4     1    1
    42     1     2    1
    43     1    24    1
    44     1     3    2
    45    24    25    1
    46    28    25    1
    47    25    26    1
    48    25    27    2
@<TRIPOS>MOLECULE
UD2
 46 48 0 0 0
SMALL
GASTEIGER

@<TRIPOS>ATOM
      1 P          21.8866   72.3285   -6.0774 P.3     1  UNL1        0.2189
      2 O          23.0617   73.1798   -6.7743 O.3     1  UNL1       -0.4371
      3 O          20.7497   73.2215   -5.7627 O.2     1  UNL1       -0.5170
      4 O          21.3962   71.1688   -7.0816 O.3     1  UNL1       -0.3112
      5 C          20.5621   71.4225   -8.2135 C.3     1  UNL1        0.1811
      6 C          17.4564   70.1219   -6.9485 C.3     1  UNL1        0.2383
      7 C          17.0378   71.1235   -8.0547 C.3     1  UNL1        0.1895
      8 O          15.8182   70.7152   -8.6774 O.3     1  UNL1       -0.3779
      9 C          18.2232   71.0274   -9.0461 C.3     1  UNL1        0.1713
     10 C          19.3763   70.4547   -8.1999 C.3     1  UNL1        0.1764
     11 O          18.8867   70.3004   -6.8583 O.3     1  UNL1       -0.3308
     12 O          17.9040   70.1427  -10.1213 O.3     1  UNL1       -0.3794
     13 H          15.5146   71.3103   -9.3762 H       1  UNL1        0.2106
     14 H          17.1469   70.4247  -10.6522 H       1  UNL1        0.2105
     15 N          16.8128   70.4592   -5.6769 N.ar    1  UNL1       -0.2551
     16 C          16.4378   69.4766   -4.8386 C.ar    1  UNL1        0.3323
     17 N          15.8441   69.7574   -3.6635 N.ar    1  UNL1       -0.2743
     18 C          15.6169   71.0380   -3.3068 C.ar    1  UNL1        0.2626
     19 C          16.0074   72.0823   -4.1792 C.ar    1  UNL1        0.0795
     20 C          16.6045   71.7719   -5.3490 C.ar    1  UNL1        0.0869
     21 O          16.6366   68.3174   -5.1471 O.2     1  UNL1       -0.2464
     22 O          15.0799   71.2935   -2.2434 O.2     1  UNL1       -0.2670
     23 H          15.5789   69.0369   -3.0714 H       1  UNL1        0.1734
     24 O          22.4388   71.6629   -4.7190 O.3     1  UNL1       -0.2703
     25 P          23.4776   72.1372   -3.5837 P.3     1  UNL1        0.2208
     26 O          24.2471   70.8527   -2.9907 O.3     1  UNL1       -0.4371
     27 O          24.4610   73.0716   -4.1738 O.2     1  UNL1       -0.5170
     28 O          22.6768   72.8778   -2.3992 O.3     1  UNL1       -0.2865
     29 C          21.3586   72.5014   -1.9969 C.3     1  UNL1        0.2611
     30 C          20.5255   73.7584   -1.7351 C.3     1  UNL1        0.1582
     31 C          21.1558   74.5475   -0.5834 C.3     1  UNL1        0.1625
     32 C          21.2474   73.6446    0.6498 C.3     1  UNL1        0.1686
     33 C          22.0530   72.3916    0.2960 C.3     1  UNL1        0.1760
     34 O          20.3435   75.6847   -0.2833 O.3     1  UNL1       -0.3801
     35 O          19.9332   73.2669    1.0640 O.3     1  UNL1       -0.3794
     36 O          21.4304   71.7212   -0.8017 O.3     1  UNL1       -0.3263
     37 H          20.6842   76.2317    0.4377 H       1  UNL1        0.2105
     38 H          19.9153   72.6922    1.8420 H       1  UNL1        0.2105
     39 C          21.4306   75.5479   -3.1193 C.2     1  UNL1        0.2231
     40 C          21.4058   76.4021   -4.3596 C.3     1  UNL1        0.0946
     41 N          20.5006   74.5890   -2.9418 N.am    1  UNL1       -0.2994
     42 O          22.2882   75.7230   -2.2790 O.2     1  UNL1       -0.2751
     43 H          19.8141   74.4493   -3.6128 H       1  UNL1        0.1496
     44 C          22.0985   71.4564    1.5058 C.3     1  UNL1        0.1693
     45 O          21.6246   70.1625    1.1267 O.3     1  UNL1       -0.3794
     46 H          21.6255   69.5163    1.8460 H       1  UNL1        0.2105
@<TRIPOS>BOND
     1    29    30    1
     2    30    41    1
     3    30    31    1
     4    31    34    1
     5    31    32    1
     6    32    35    1
     7    32    33    1
     8    33    36    1
     9    33    44    1
    10    39    40    1
    11    39    42    2
    12    39    41   am
    13    41    43    1
    14    29    28    1
    15    34    37    1
    16    35    38    1
    17    29    36    1
    18    44    45    1
    19    45    46    1
    20    15     6    1
    21    15    16   ar
    22    16    21    2
    23    16    17   ar
    24    17    23    1
    25    17    18   ar
    26    18    19   ar
    27    19    20   ar
    28    15    20   ar
    29    18    22    2
    30     6     7    1
    31     6    11    1
    32     7     9    1
    33     7     8    1
    34     8    13    1
    35     9    10    1
    36     9    12    1
    37    10     5    1
    38    10    11    1
    39    12    14    1
    40     5     4    1
    41     4     1    1
    42     1     2    1
    43     1    24    1
    44     1     3    2
    45    24    25    1
    46    28    25    1
    47    25    26    1
    48    25    27    2
