@<TRIPOS>MOLECULE
*****
 43 45 0 0 0
SMALL
GASTEIGER

@<TRIPOS>ATOM
      1 P          22.5774   71.5943   -2.1987 P.3     1  UNL1        0.2189
      2 O          21.6697   72.8972   -1.8864 O.co2   1  UNL1       -0.4371
      3 O          23.6036   71.7809   -3.2775 O.2     1  UNL1       -0.5170
      4 O          21.4952   70.4190   -2.4541 O.3     1  UNL1       -0.3112
      5 C          20.7925   70.4023   -3.6831 C.3     1  UNL1        0.1811
      6 O          19.0444   71.7022   -4.6990 O.3     1  UNL1       -0.3308
      7 O          17.2623   70.6638   -2.5225 O.3     1  UNL1       -0.3794
      8 O          16.5847   69.0943   -4.6470 O.3     1  UNL1       -0.3779
      9 C          18.3242   70.0044   -3.2125 C.3     1  UNL1        0.1713
     10 C          17.8887   69.6356   -4.6148 C.3     1  UNL1        0.1895
     11 C          19.4192   71.0285   -3.4779 C.3     1  UNL1        0.1764
     12 C          17.9863   70.9689   -5.3363 C.3     1  UNL1        0.2383
     13 H          16.5506   70.0294   -2.3418 H       1  UNL1        0.2105
     14 H          16.5749   68.2463   -4.1749 H       1  UNL1        0.2106
     15 O          16.0675   70.5132   -7.3579 O.2     1  UNL1       -0.2464
     16 O          19.2932   70.4000  -10.6482 O.2     1  UNL1       -0.2670
     17 N          18.2972   70.8166   -6.7295 N.ar    1  UNL1       -0.2551
     18 N          17.6760   70.4563   -8.9946 N.ar    1  UNL1       -0.2743
     19 C          17.2589   70.5908   -7.6638 C.ar    1  UNL1        0.3323
     20 C          19.6169   70.8928   -7.1581 C.ar    1  UNL1        0.0869
     21 C          19.9990   70.7626   -8.4300 C.ar    1  UNL1        0.0795
     22 C          18.9760   70.5237   -9.4691 C.ar    1  UNL1        0.2626
     23 H          16.9711   70.2964   -9.6631 H       1  UNL1        0.1734
     24 O          23.1854   71.2196   -0.7486 O.3     1  UNL1       -0.2703
     25 P          22.4560   70.9138    0.6614 P.3     1  UNL1        0.2208
     26 O          23.4600   69.8654    1.3776 O.co2   1  UNL1       -0.4371
     27 O          21.0424   70.4253    0.5303 O.2     1  UNL1       -0.5170
     28 O          22.6173   72.2765    1.5097 O.3     1  UNL1       -0.2858
     29 O          23.8415   72.9569    3.4196 O.3     1  UNL1       -0.3226
     30 O          20.1696   74.7234    4.1014 O.3     1  UNL1       -0.3794
     31 O          20.3317   71.9952    3.0694 O.3     1  UNL1       -0.3775
     32 O          22.4186   76.3319    3.2038 O.3     1  UNL1       -0.3792
     33 C          21.2506   74.2274    3.3118 C.3     1  UNL1        0.1718
     34 C          21.4361   72.7335    3.5790 C.3     1  UNL1        0.1968
     35 C          22.5137   74.9986    3.7015 C.3     1  UNL1        0.1723
     36 C          22.7217   72.2173    2.9311 C.3     1  UNL1        0.2706
     37 C          23.7653   74.3486    3.1189 C.3     1  UNL1        0.1830
     38 H          19.3560   74.2478    3.8710 H       1  UNL1        0.2105
     39 H          19.5125   72.3176    3.4760 H       1  UNL1        0.2106
     40 H          21.6259   76.7569    3.5669 H       1  UNL1        0.2106
     41 O          25.7514   75.5683    2.8556 O.co2   1  UNL1       -0.5466
     42 O          25.2901   74.7695    4.9409 O.co2   1  UNL1       -0.5466
     43 C          24.9968   74.8986    3.7617 C.2     1  UNL1        0.0799
@<TRIPOS>UNITY_ATOM_ATTR
2 1
charge -1
26 1
charge -1
41 1
charge -1
@<TRIPOS>BOND
     1     1     4    1
     2     1    24    1
     3     1     2    1
     4     1     3    2
     5    25    28    1
     6    25    24    1
     7    25    26    1
     8    25    27    2
     9     6    11    1
    10     6    12    1
    11    29    36    1
    12    29    37    1
    13     7     9    1
    14     7    13    1
    15     8    10    1
    16     8    14    1
    17     4     5    1
    18    28    36    1
    19    30    33    1
    20    30    38    1
    21    31    34    1
    22    31    39    1
    23    32    35    1
    24    32    40    1
    25    41    43   ar
    26    15    19    2
    27    42    43   ar
    28    16    22    2
    29    17    12    1
    30    17    19   ar
    31    17    20   ar
    32    18    19   ar
    33    18    22   ar
    34    18    23    1
    35     9    10    1
    36     9    11    1
    37    10    12    1
    38    11     5    1
    39    33    34    1
    40    33    35    1
    41    34    36    1
    42    35    37    1
    43    37    43    1
    44    20    21   ar
    45    21    22   ar
@<TRIPOS>MOLECULE
*****
 43 45 0 0 0
SMALL
GASTEIGER

@<TRIPOS>ATOM
      1 P          21.6846   73.6806   -5.7325 P.3     1  UNL1        0.2189
      2 O          20.7182   74.5197   -4.7421 O.co2   1  UNL1       -0.4371
      3 O          22.8627   74.4431   -6.2641 O.2     1  UNL1       -0.5170
      4 O          20.6746   73.0821   -6.8459 O.3     1  UNL1       -0.3112
      5 C          21.2234   72.5113   -8.0195 C.3     1  UNL1        0.1811
      6 O          19.6104   70.7520   -8.3032 O.3     1  UNL1       -0.3308
      7 O          18.1663   72.6262  -10.1453 O.3     1  UNL1       -0.3794
      8 O          16.7279   72.8325   -7.8378 O.3     1  UNL1       -0.3779
      9 C          18.8895   72.9141   -8.9483 C.3     1  UNL1        0.1713
     10 C          18.0918   72.4801   -7.7368 C.3     1  UNL1        0.1895
     11 C          20.0911   71.9810   -8.8895 C.3     1  UNL1        0.1764
     12 C          18.3089   70.9766   -7.7383 C.3     1  UNL1        0.2383
     13 H          17.3936   73.2102  -10.2050 H       1  UNL1        0.2105
     14 H          16.6425   73.7993   -7.8324 H       1  UNL1        0.2106
     15 O          16.0968   69.5930   -6.6572 O.2     1  UNL1       -0.2464
     16 O          18.2719   68.8686   -2.6587 O.2     1  UNL1       -0.2670
     17 N          18.2702   70.4160   -6.4173 N.ar    1  UNL1       -0.2551
     18 N          17.1819   69.2344   -4.6664 N.ar    1  UNL1       -0.2743
     19 C          17.1099   69.7402   -5.9710 C.ar    1  UNL1        0.3323
     20 C          19.3727   70.5365   -5.5801 C.ar    1  UNL1        0.0869
     21 C          19.4265   70.0490   -4.3391 C.ar    1  UNL1        0.0795
     22 C          18.2555   69.3298   -3.7959 C.ar    1  UNL1        0.2626
     23 H          16.3853   68.7617   -4.3328 H       1  UNL1        0.1734
     24 O          22.0661   72.3802   -4.8514 O.3     1  UNL1       -0.2703
     25 P          23.0466   72.2119   -3.5771 P.3     1  UNL1        0.2208
     26 O          24.2402   73.2603   -3.8877 O.co2   1  UNL1       -0.4371
     27 O          23.5076   70.8035   -3.3366 O.2     1  UNL1       -0.5170
     28 O          22.2361   72.8702   -2.3474 O.3     1  UNL1       -0.2858
     29 O          21.5819   71.0585   -0.9694 O.3     1  UNL1       -0.3226
     30 O          20.2096   74.2989    1.1948 O.3     1  UNL1       -0.3794
     31 O          19.8853   74.2118   -1.7072 O.3     1  UNL1       -0.3775
     32 O          22.6115   72.8940    2.0361 O.3     1  UNL1       -0.3792
     33 C          21.0847   73.5987    0.3107 C.3     1  UNL1        0.1718
     34 C          20.2990   73.1106   -0.9067 C.3     1  UNL1        0.1968
     35 C          21.6765   72.4112    1.0733 C.3     1  UNL1        0.1723
     36 C          21.1445   72.1643   -1.7602 C.3     1  UNL1        0.2706
     37 C          22.3970   71.4488    0.1335 C.3     1  UNL1        0.1830
     38 H          19.8215   75.0581    0.7319 H       1  UNL1        0.2105
     39 H          19.3485   74.8166   -1.1718 H       1  UNL1        0.2106
     40 H          22.1656   73.5078    2.6404 H       1  UNL1        0.2106
     41 O          22.2045   69.1116    0.0876 O.co2   1  UNL1       -0.5466
     42 O          23.2598   70.0332    1.8866 O.co2   1  UNL1       -0.5466
     43 C          22.6794   70.1510    0.8178 C.2     1  UNL1        0.0799
@<TRIPOS>UNITY_ATOM_ATTR
2 1
charge -1
26 1
charge -1
41 1
charge -1
@<TRIPOS>BOND
     1     1     4    1
     2     1    24    1
     3     1     2    1
     4     1     3    2
     5    25    28    1
     6    25    24    1
     7    25    26    1
     8    25    27    2
     9     6    11    1
    10     6    12    1
    11    29    36    1
    12    29    37    1
    13     7     9    1
    14     7    13    1
    15     8    10    1
    16     8    14    1
    17     4     5    1
    18    28    36    1
    19    30    33    1
    20    30    38    1
    21    31    34    1
    22    31    39    1
    23    32    35    1
    24    32    40    1
    25    41    43   ar
    26    15    19    2
    27    42    43   ar
    28    16    22    2
    29    17    12    1
    30    17    19   ar
    31    17    20   ar
    32    18    19   ar
    33    18    22   ar
    34    18    23    1
    35     9    10    1
    36     9    11    1
    37    10    12    1
    38    11     5    1
    39    33    34    1
    40    33    35    1
    41    34    36    1
    42    35    37    1
    43    37    43    1
    44    20    21   ar
    45    21    22   ar
@<TRIPOS>MOLECULE
*****
 43 45 0 0 0
SMALL
GASTEIGER

@<TRIPOS>ATOM
      1 P          22.7581   71.4514   -2.8234 P.3     1  UNL1        0.2189
      2 O          23.1496   72.8888   -3.4555 O.co2   1  UNL1       -0.4371
      3 O          23.6585   70.3184   -3.2201 O.2     1  UNL1       -0.5170
      4 O          21.1954   71.2728   -3.2027 O.3     1  UNL1       -0.3112
      5 C          20.5033   72.3773   -3.7556 C.3     1  UNL1        0.1811
      6 O          18.3329   72.3491   -4.7881 O.3     1  UNL1       -0.3308
      7 O          17.3925   70.8949   -2.3401 O.3     1  UNL1       -0.3794
      8 O          17.6820   68.8806   -4.1552 O.3     1  UNL1       -0.3779
      9 C          18.6445   70.8036   -3.0203 C.3     1  UNL1        0.1713
     10 C          18.4834   70.0327   -4.3134 C.3     1  UNL1        0.1895
     11 C          19.0093   72.1942   -3.5217 C.3     1  UNL1        0.1764
     12 C          17.8442   71.0696   -5.2211 C.3     1  UNL1        0.2383
     13 H          17.1385   70.0182   -2.0105 H       1  UNL1        0.2105
     14 H          18.1325   68.2514   -3.5695 H       1  UNL1        0.2106
     15 O          15.9900   70.4741   -7.2666 O.2     1  UNL1       -0.2464
     16 O          19.2932   70.3605  -10.4790 O.2     1  UNL1       -0.2670
     17 N          18.1925   70.8794   -6.6008 N.ar    1  UNL1       -0.2551
     18 N          17.6371   70.4171   -8.8644 N.ar    1  UNL1       -0.2743
     19 C          17.1847   70.5835   -7.5489 C.ar    1  UNL1        0.3323
     20 C          19.5182   70.9877   -7.0027 C.ar    1  UNL1        0.0869
     21 C          19.9341   70.8266   -8.2604 C.ar    1  UNL1        0.0795
     22 C          18.9445   70.5145   -9.3124 C.ar    1  UNL1        0.2626
     23 H          16.9539   70.2084   -9.5420 H       1  UNL1        0.1734
     24 O          22.7146   71.7527   -1.2359 O.3     1  UNL1       -0.2703
     25 P          22.3167   70.8070    0.0135 P.3     1  UNL1        0.2208
     26 O          23.6362   69.8923    0.2198 O.co2   1  UNL1       -0.4371
     27 O          21.0486   70.0278   -0.1833 O.2     1  UNL1       -0.5170
     28 O          22.3037   71.7962    1.2877 O.3     1  UNL1       -0.2858
     29 O          20.9977   72.4985    3.1344 O.3     1  UNL1       -0.3226
     30 O          21.6358   76.0659    1.1510 O.3     1  UNL1       -0.3794
     31 O          20.9992   73.6358   -0.3402 O.3     1  UNL1       -0.3775
     32 O          23.1135   75.4627    3.5807 O.3     1  UNL1       -0.3792
     33 C          21.9531   74.7466    1.5943 C.3     1  UNL1        0.1718
     34 C          20.9027   73.7653    1.0735 C.3     1  UNL1        0.1968
     35 C          21.9641   74.7518    3.1246 C.3     1  UNL1        0.1723
     36 C          21.0770   72.3870    1.7129 C.3     1  UNL1        0.2706
     37 C          22.0131   73.3337    3.6862 C.3     1  UNL1        0.1830
     38 H          21.6230   76.0870    0.1811 H       1  UNL1        0.2105
     39 H          20.8898   74.5067   -0.7524 H       1  UNL1        0.2106
     40 H          23.0946   76.3669    3.2301 H       1  UNL1        0.2106
     41 O          22.7286   72.8222    5.8606 O.co2   1  UNL1       -0.5466
     42 O          20.6488   73.7296    5.6365 O.co2   1  UNL1       -0.5466
     43 C          21.6941   73.3300    5.1458 C.2     1  UNL1        0.0799
@<TRIPOS>UNITY_ATOM_ATTR
2 1
charge -1
26 1
charge -1
41 1
charge -1
@<TRIPOS>BOND
     1     1     4    1
     2     1    24    1
     3     1     2    1
     4     1     3    2
     5    25    28    1
     6    25    24    1
     7    25    26    1
     8    25    27    2
     9     6    11    1
    10     6    12    1
    11    29    36    1
    12    29    37    1
    13     7     9    1
    14     7    13    1
    15     8    10    1
    16     8    14    1
    17     4     5    1
    18    28    36    1
    19    30    33    1
    20    30    38    1
    21    31    34    1
    22    31    39    1
    23    32    35    1
    24    32    40    1
    25    41    43   ar
    26    15    19    2
    27    42    43   ar
    28    16    22    2
    29    17    12    1
    30    17    19   ar
    31    17    20   ar
    32    18    19   ar
    33    18    22   ar
    34    18    23    1
    35     9    10    1
    36     9    11    1
    37    10    12    1
    38    11     5    1
    39    33    34    1
    40    33    35    1
    41    34    36    1
    42    35    37    1
    43    37    43    1
    44    20    21   ar
    45    21    22   ar
@<TRIPOS>MOLECULE
*****
 43 45 0 0 0
SMALL
GASTEIGER

@<TRIPOS>ATOM
      1 P          23.0543   71.9873   -3.4219 P.3     1  UNL1        0.2189
      2 O          23.7812   73.0133   -4.4406 O.co2   1  UNL1       -0.4371
      3 O          23.7226   70.6507   -3.2848 O.2     1  UNL1       -0.5170
      4 O          21.5190   71.9561   -3.9315 O.3     1  UNL1       -0.3112
      5 C          20.6879   70.8905   -3.5092 C.3     1  UNL1        0.1811
      6 O          18.8622   71.9925   -4.6183 O.3     1  UNL1       -0.3308
      7 O          17.1187   70.8900   -2.4420 O.3     1  UNL1       -0.3794
      8 O          16.6349   69.1849   -4.5144 O.3     1  UNL1       -0.3779
      9 C          18.2512   70.2987   -3.0794 C.3     1  UNL1        0.1713
     10 C          17.8864   69.8383   -4.4748 C.3     1  UNL1        0.1895
     11 C          19.2609   71.4027   -3.3619 C.3     1  UNL1        0.1764
     12 C          17.8883   71.1456   -5.2487 C.3     1  UNL1        0.2383
     13 H          16.4595   70.2038   -2.2515 H       1  UNL1        0.2105
     14 H          16.6855   68.3586   -4.0078 H       1  UNL1        0.2106
     15 O          16.0658   70.4687   -7.2974 O.2     1  UNL1       -0.2464
     16 O          19.3798   70.4820  -10.5006 O.2     1  UNL1       -0.2670
     17 N          18.2479   70.9660   -6.6269 N.ar    1  UNL1       -0.2551
     18 N          17.7183   70.4750   -8.8906 N.ar    1  UNL1       -0.2743
     19 C          17.2558   70.6263   -7.5768 C.ar    1  UNL1        0.3323
     20 C          19.5692   71.1276   -7.0256 C.ar    1  UNL1        0.0869
     21 C          19.9949   70.9801   -8.2817 C.ar    1  UNL1        0.0795
     22 C          19.0219   70.6247   -9.3354 C.ar    1  UNL1        0.2626
     23 H          17.0462   70.2365   -9.5694 H       1  UNL1        0.1734
     24 O          22.9650   72.8392   -2.0511 O.3     1  UNL1       -0.2703
     25 P          22.4086   74.3293   -1.7618 P.3     1  UNL1        0.2208
     26 O          21.1293   74.4441   -2.7469 O.co2   1  UNL1       -0.4371
     27 O          23.4298   75.4144   -1.9454 O.2     1  UNL1       -0.5170
     28 O          21.7757   74.2493   -0.2801 O.3     1  UNL1       -0.2858
     29 O          21.2435   71.9460   -0.1364 O.3     1  UNL1       -0.3226
     30 O          20.6976   73.1802    3.7683 O.3     1  UNL1       -0.3794
     31 O          19.7628   74.8332    1.5484 O.3     1  UNL1       -0.3775
     32 O          23.0655   71.6612    3.0356 O.3     1  UNL1       -0.3792
     33 C          21.2904   73.1889    2.4697 C.3     1  UNL1        0.1718
     34 C          20.2202   73.4919    1.4207 C.3     1  UNL1        0.1968
     35 C          21.9042   71.8093    2.2207 C.3     1  UNL1        0.1723
     36 C          20.7654   73.2841    0.0070 C.3     1  UNL1        0.2706
     37 C          22.3080   71.6347    0.7596 C.3     1  UNL1        0.1830
     38 H          20.3009   74.0470    3.9487 H       1  UNL1        0.2105
     39 H          19.4157   74.9721    2.4431 H       1  UNL1        0.2106
     40 H          22.8221   71.7703    3.9682 H       1  UNL1        0.2106
     41 O          21.4579   69.4613    0.5238 O.co2   1  UNL1       -0.5466
     42 O          23.6941   69.7464    0.1810 O.co2   1  UNL1       -0.5466
     43 C          22.5933   70.1998    0.4560 C.2     1  UNL1        0.0799
@<TRIPOS>UNITY_ATOM_ATTR
2 1
charge -1
26 1
charge -1
41 1
charge -1
@<TRIPOS>BOND
     1     1     4    1
     2     1    24    1
     3     1     2    1
     4     1     3    2
     5    25    28    1
     6    25    24    1
     7    25    26    1
     8    25    27    2
     9     6    11    1
    10     6    12    1
    11    29    36    1
    12    29    37    1
    13     7     9    1
    14     7    13    1
    15     8    10    1
    16     8    14    1
    17     4     5    1
    18    28    36    1
    19    30    33    1
    20    30    38    1
    21    31    34    1
    22    31    39    1
    23    32    35    1
    24    32    40    1
    25    41    43   ar
    26    15    19    2
    27    42    43   ar
    28    16    22    2
    29    17    12    1
    30    17    19   ar
    31    17    20   ar
    32    18    19   ar
    33    18    22   ar
    34    18    23    1
    35     9    10    1
    36     9    11    1
    37    10    12    1
    38    11     5    1
    39    33    34    1
    40    33    35    1
    41    34    36    1
    42    35    37    1
    43    37    43    1
    44    20    21   ar
    45    21    22   ar
@<TRIPOS>MOLECULE
*****
 43 45 0 0 0
SMALL
GASTEIGER

@<TRIPOS>ATOM
      1 P          22.7622   71.7296   -2.1669 P.3     1  UNL1        0.2189
      2 O          23.3007   73.2411   -2.3779 O.co2   1  UNL1       -0.4371
      3 O          23.3903   70.7025   -3.0626 O.2     1  UNL1       -0.5170
      4 O          21.1543   71.8708   -2.2792 O.3     1  UNL1       -0.3112
      5 C          20.5287   71.5231   -3.5007 C.3     1  UNL1        0.1811
      6 O          18.5841   72.2575   -4.7078 O.3     1  UNL1       -0.3308
      7 O          16.9783   71.1062   -2.4522 O.3     1  UNL1       -0.3794
      8 O          16.7735   69.1813   -4.3728 O.3     1  UNL1       -0.3779
      9 C          18.1931   70.6299   -3.0318 C.3     1  UNL1        0.1713
     10 C          17.9195   70.0065   -4.3842 C.3     1  UNL1        0.1895
     11 C          19.0416   71.8382   -3.4038 C.3     1  UNL1        0.1764
     12 C          17.7497   71.2309   -5.2673 C.3     1  UNL1        0.2383
     13 H          16.4195   70.3519   -2.2064 H       1  UNL1        0.2105
     14 H          16.9318   68.4161   -3.7971 H       1  UNL1        0.2106
     15 O          16.0227   70.3158   -7.3061 O.2     1  UNL1       -0.2464
     16 O          19.4077   70.3360  -10.4343 O.2     1  UNL1       -0.2670
     17 N          18.1534   70.9886   -6.6235 N.ar    1  UNL1       -0.2551
     18 N          17.7105   70.3258   -8.8619 N.ar    1  UNL1       -0.2743
     19 C          17.2074   70.5295   -7.5702 C.ar    1  UNL1        0.3323
     20 C          19.4719   71.2070   -7.0042 C.ar    1  UNL1        0.0869
     21 C          19.9365   71.0085   -8.2393 C.ar    1  UNL1        0.0795
     22 C          19.0131   70.5284   -9.2882 C.ar    1  UNL1        0.2626
     23 H          17.0711   70.0042   -9.5380 H       1  UNL1        0.1734
     24 O          22.9955   71.4785   -0.5873 O.3     1  UNL1       -0.2703
     25 P          22.1861   70.5654    0.4732 P.3     1  UNL1        0.2208
     26 O          23.3616   69.9282    1.3856 O.co2   1  UNL1       -0.4371
     27 O          21.2741   69.5525   -0.1562 O.2     1  UNL1       -0.5170
     28 O          21.4461   71.6219    1.4421 O.3     1  UNL1       -0.2858
     29 O          21.9254   73.9246    1.1647 O.3     1  UNL1       -0.3226
     30 O          20.0881   73.8881    4.8648 O.3     1  UNL1       -0.3794
     31 O          22.0283   71.8229    4.1544 O.3     1  UNL1       -0.3775
     32 O          18.6421   74.8339    2.5269 O.3     1  UNL1       -0.3792
     33 C          20.3389   73.4484    3.5300 C.3     1  UNL1        0.1718
     34 C          21.7975   73.0082    3.4018 C.3     1  UNL1        0.1968
     35 C          20.0507   74.6171    2.5850 C.3     1  UNL1        0.1723
     36 C          22.1644   72.7493    1.9399 C.3     1  UNL1        0.2706
     37 C          20.5589   74.3316    1.1748 C.3     1  UNL1        0.1830
     38 H          20.2646   73.1618    5.4833 H       1  UNL1        0.2105
     39 H          21.7973   71.9799    5.0831 H       1  UNL1        0.2106
     40 H          18.3060   75.0165    3.4183 H       1  UNL1        0.2106
     41 O          20.9501   75.3096   -0.9209 O.co2   1  UNL1       -0.5466
     42 O          20.2874   76.6938    0.7654 O.co2   1  UNL1       -0.5466
     43 C          20.5745   75.5798    0.3537 C.2     1  UNL1        0.0799
@<TRIPOS>UNITY_ATOM_ATTR
2 1
charge -1
26 1
charge -1
41 1
charge -1
@<TRIPOS>BOND
     1     1     4    1
     2     1    24    1
     3     1     2    1
     4     1     3    2
     5    25    28    1
     6    25    24    1
     7    25    26    1
     8    25    27    2
     9     6    11    1
    10     6    12    1
    11    29    36    1
    12    29    37    1
    13     7     9    1
    14     7    13    1
    15     8    10    1
    16     8    14    1
    17     4     5    1
    18    28    36    1
    19    30    33    1
    20    30    38    1
    21    31    34    1
    22    31    39    1
    23    32    35    1
    24    32    40    1
    25    41    43   ar
    26    15    19    2
    27    42    43   ar
    28    16    22    2
    29    17    12    1
    30    17    19   ar
    31    17    20   ar
    32    18    19   ar
    33    18    22   ar
    34    18    23    1
    35     9    10    1
    36     9    11    1
    37    10    12    1
    38    11     5    1
    39    33    34    1
    40    33    35    1
    41    34    36    1
    42    35    37    1
    43    37    43    1
    44    20    21   ar
    45    21    22   ar
@<TRIPOS>MOLECULE
*****
 43 45 0 0 0
SMALL
GASTEIGER

@<TRIPOS>ATOM
      1 P          22.0927   70.4282   -0.1014 P.3     1  UNL1        0.2189
      2 O          20.7504   69.8361   -0.7844 O.co2   1  UNL1       -0.4371
      3 O          23.1680   69.4158    0.1641 O.2     1  UNL1       -0.5170
      4 O          21.5481   71.2309    1.1936 O.3     1  UNL1       -0.3112
      5 C          22.4780   71.6213    2.1874 C.3     1  UNL1        0.1811
      6 O          22.6643   72.7838    4.2830 O.3     1  UNL1       -0.3308
      7 O          19.7045   73.2238    4.0895 O.3     1  UNL1       -0.3794
      8 O          20.7176   75.6256    3.2886 O.3     1  UNL1       -0.3779
      9 C          20.6851   73.2059    3.0519 C.3     1  UNL1        0.1713
     10 C          21.5109   74.4743    3.0891 C.3     1  UNL1        0.1895
     11 C          21.7181   72.1429    3.4002 C.3     1  UNL1        0.1764
     12 C          22.4519   74.2041    4.2507 C.3     1  UNL1        0.2383
     13 H          19.0335   73.8956    3.8890 H       1  UNL1        0.2105
     14 H          20.1364   75.7545    2.5221 H       1  UNL1        0.2106
     15 O          23.9227   75.3554    6.3692 O.2     1  UNL1       -0.2464
     16 O          27.2987   76.7030    3.5353 O.2     1  UNL1       -0.2670
     17 N          23.7182   74.8621    4.0946 N.ar    1  UNL1       -0.2551
     18 N          25.6022   76.0264    4.9556 N.ar    1  UNL1       -0.2743
     19 C          24.3744   75.4070    5.2236 C.ar    1  UNL1        0.3323
     20 C          24.2978   74.9613    2.8356 C.ar    1  UNL1        0.0869
     21 C          25.4688   75.5546    2.5958 C.ar    1  UNL1        0.0795
     22 C          26.2187   76.1504    3.7210 C.ar    1  UNL1        0.2626
     23 H          26.0769   76.4150    5.7256 H       1  UNL1        0.1734
     24 O          22.5204   71.6155   -1.1115 O.3     1  UNL1       -0.2703
     25 P          22.5774   71.6662   -2.7264 P.3     1  UNL1        0.2208
     26 O          23.5265   70.4100   -3.1025 O.co2   1  UNL1       -0.4371
     27 O          23.0406   72.9804   -3.2853 O.2     1  UNL1       -0.5170
     28 O          21.1023   71.2189   -3.2023 O.3     1  UNL1       -0.2858
     29 O          19.7513   71.9258   -5.0145 O.3     1  UNL1       -0.3226
     30 O          16.9241   71.2041   -2.0897 O.3     1  UNL1       -0.3794
     31 O          19.4285   72.5548   -1.4274 O.3     1  UNL1       -0.3775
     32 O          17.2823   69.3156   -4.2705 O.3     1  UNL1       -0.3792
     33 C          18.1512   71.0085   -2.7926 C.3     1  UNL1        0.1718
     34 C          18.9755   72.2955   -2.7512 C.3     1  UNL1        0.1968
     35 C          17.8139   70.6388   -4.2388 C.3     1  UNL1        0.1723
     36 C          20.1852   72.2006   -3.6819 C.3     1  UNL1        0.2706
     37 C          19.0518   70.6887   -5.1297 C.3     1  UNL1        0.1830
     38 H          17.1135   71.4401   -1.1678 H       1  UNL1        0.2105
     39 H          18.6660   72.6160   -0.8314 H       1  UNL1        0.2106
     40 H          16.4940   69.2703   -3.7073 H       1  UNL1        0.2106
     41 O          17.3194   70.6839   -6.7110 O.co2   1  UNL1       -0.5466
     42 O          19.4547   70.6062   -7.5072 O.co2   1  UNL1       -0.5466
     43 C          18.6682   70.6534   -6.5733 C.2     1  UNL1        0.0799
@<TRIPOS>UNITY_ATOM_ATTR
2 1
charge -1
26 1
charge -1
41 1
charge -1
@<TRIPOS>BOND
     1     1     4    1
     2     1    24    1
     3     1     2    1
     4     1     3    2
     5    25    28    1
     6    25    24    1
     7    25    26    1
     8    25    27    2
     9     6    11    1
    10     6    12    1
    11    29    36    1
    12    29    37    1
    13     7     9    1
    14     7    13    1
    15     8    10    1
    16     8    14    1
    17     4     5    1
    18    28    36    1
    19    30    33    1
    20    30    38    1
    21    31    34    1
    22    31    39    1
    23    32    35    1
    24    32    40    1
    25    41    43   ar
    26    15    19    2
    27    42    43   ar
    28    16    22    2
    29    17    12    1
    30    17    19   ar
    31    17    20   ar
    32    18    19   ar
    33    18    22   ar
    34    18    23    1
    35     9    10    1
    36     9    11    1
    37    10    12    1
    38    11     5    1
    39    33    34    1
    40    33    35    1
    41    34    36    1
    42    35    37    1
    43    37    43    1
    44    20    21   ar
    45    21    22   ar
@<TRIPOS>MOLECULE
*****
 43 45 0 0 0
SMALL
GASTEIGER

@<TRIPOS>ATOM
      1 P          22.5126   72.6122   -2.6905 P.3     1  UNL1        0.2189
      2 O          21.5152   73.7685   -3.2264 O.co2   1  UNL1       -0.4371
      3 O          23.7275   72.3798   -3.5400 O.2     1  UNL1       -0.5170
      4 O          21.5460   71.3316   -2.4814 O.3     1  UNL1       -0.3112
      5 C          20.7725   70.8820   -3.5786 C.3     1  UNL1        0.1811
      6 O          18.9067   71.9528   -4.6509 O.3     1  UNL1       -0.3308
      7 O          17.2220   70.8020   -2.4534 O.3     1  UNL1       -0.3794
      8 O          16.7392   69.0996   -4.5281 O.3     1  UNL1       -0.3779
      9 C          18.3558   70.2378   -3.1128 C.3     1  UNL1        0.1713
     10 C          17.9775   69.7782   -4.5049 C.3     1  UNL1        0.1895
     11 C          19.3379   71.3640   -3.4049 C.3     1  UNL1        0.1764
     12 C          17.9400   71.0898   -5.2706 C.3     1  UNL1        0.2383
     13 H          16.5803   70.1013   -2.2564 H       1  UNL1        0.2105
     14 H          16.8149   68.2715   -4.0276 H       1  UNL1        0.2106
     15 O          16.0939   70.4104   -7.2972 O.2     1  UNL1       -0.2464
     16 O          19.3584   70.4866  -10.5500 O.2     1  UNL1       -0.2670
     17 N          18.2805   70.9257   -6.6555 N.ar    1  UNL1       -0.2551
     18 N          17.7218   70.4480   -8.9151 N.ar    1  UNL1       -0.2743
     19 C          17.2777   70.5833   -7.5932 C.ar    1  UNL1        0.3323
     20 C          19.5938   71.1050   -7.0728 C.ar    1  UNL1        0.0869
     21 C          20.0019   70.9727   -8.3364 C.ar    1  UNL1        0.0795
     22 C          19.0168   70.6156   -9.3783 C.ar    1  UNL1        0.2626
     23 H          17.0420   70.2081   -9.5857 H       1  UNL1        0.1734
     24 O          22.8294   73.0796   -1.1759 O.3     1  UNL1       -0.2703
     25 P          23.4963   74.4354   -0.6009 P.3     1  UNL1        0.2208
     26 O          22.3354   75.5415   -0.8227 O.co2   1  UNL1       -0.4371
     27 O          24.8140   74.7876   -1.2284 O.2     1  UNL1       -0.5170
     28 O          23.5523   74.2185    0.9966 O.3     1  UNL1       -0.2858
     29 O          22.4766   74.6097    3.0700 O.3     1  UNL1       -0.3226
     30 O          25.9584   76.7905    3.5047 O.3     1  UNL1       -0.3794
     31 O          24.4864   76.8383    0.9818 O.3     1  UNL1       -0.3775
     32 O          25.6577   74.2361    4.8596 O.3     1  UNL1       -0.3792
     33 C          25.1424   75.7188    3.0318 C.3     1  UNL1        0.1718
     34 C          23.9933   76.2814    2.1948 C.3     1  UNL1        0.1968
     35 C          24.5967   74.9675    4.2482 C.3     1  UNL1        0.1723
     36 C          22.9728   75.1915    1.8639 C.3     1  UNL1        0.2706
     37 C          23.4955   73.9889    3.8506 C.3     1  UNL1        0.1830
     38 H          26.3164   77.2824    2.7490 H       1  UNL1        0.2105
     39 H          25.1347   77.5304    1.1842 H       1  UNL1        0.2106
     40 H          26.3653   74.8475    5.1173 H       1  UNL1        0.2106
     41 O          22.8593   74.4023    6.0700 O.co2   1  UNL1       -0.5466
     42 O          22.1265   72.4623    5.1222 O.co2   1  UNL1       -0.5466
     43 C          22.7511   73.5103    5.0544 C.2     1  UNL1        0.0799
@<TRIPOS>UNITY_ATOM_ATTR
2 1
charge -1
26 1
charge -1
41 1
charge -1
@<TRIPOS>BOND
     1     1     4    1
     2     1    24    1
     3     1     2    1
     4     1     3    2
     5    25    28    1
     6    25    24    1
     7    25    26    1
     8    25    27    2
     9     6    11    1
    10     6    12    1
    11    29    36    1
    12    29    37    1
    13     7     9    1
    14     7    13    1
    15     8    10    1
    16     8    14    1
    17     4     5    1
    18    28    36    1
    19    30    33    1
    20    30    38    1
    21    31    34    1
    22    31    39    1
    23    32    35    1
    24    32    40    1
    25    41    43   ar
    26    15    19    2
    27    42    43   ar
    28    16    22    2
    29    17    12    1
    30    17    19   ar
    31    17    20   ar
    32    18    19   ar
    33    18    22   ar
    34    18    23    1
    35     9    10    1
    36     9    11    1
    37    10    12    1
    38    11     5    1
    39    33    34    1
    40    33    35    1
    41    34    36    1
    42    35    37    1
    43    37    43    1
    44    20    21   ar
    45    21    22   ar
@<TRIPOS>MOLECULE
*****
 43 45 0 0 0
SMALL
GASTEIGER

@<TRIPOS>ATOM
      1 P          21.5847   73.0564   -5.9694 P.3     1  UNL1        0.2189
      2 O          20.4577   73.9997   -5.2917 O.co2   1  UNL1       -0.4371
      3 O          22.7957   73.7819   -6.4782 O.2     1  UNL1       -0.5170
      4 O          20.7642   72.2006   -7.0704 O.3     1  UNL1       -0.3112
      5 C          19.7258   71.3467   -6.6264 C.3     1  UNL1        0.1811
      6 O          17.5031   71.0139   -7.4789 O.3     1  UNL1       -0.3308
      7 O          18.7483   71.0235  -10.2067 O.3     1  UNL1       -0.3794
      8 O          17.7125   73.5387  -10.0158 O.3     1  UNL1       -0.3779
      9 C          19.0965   71.7873   -9.0518 C.3     1  UNL1        0.1713
     10 C          18.0759   72.8814   -8.8198 C.3     1  UNL1        0.1895
     11 C          18.9001   70.9037   -7.8275 C.3     1  UNL1        0.1764
     12 C          16.9218   72.1103   -8.2023 C.3     1  UNL1        0.2383
     13 H          18.8658   71.5672  -11.0019 H       1  UNL1        0.2105
     14 H          18.4807   74.0150  -10.3693 H       1  UNL1        0.2106
     15 O          16.3502   71.3925   -5.5313 O.2     1  UNL1       -0.2464
     16 O          13.9530   75.2629   -4.8119 O.2     1  UNL1       -0.2670
     17 N          16.1505   72.9119   -7.2948 N.ar    1  UNL1       -0.2551
     18 N          15.1559   73.3204   -5.1758 N.ar    1  UNL1       -0.2743
     19 C          15.9212   72.4598   -5.9738 C.ar    1  UNL1        0.3323
     20 C          15.6321   74.1308   -7.7149 C.ar    1  UNL1        0.0869
     21 C          14.9046   74.9403   -6.9427 C.ar    1  UNL1        0.0795
     22 C          14.6184   74.5416   -5.5489 C.ar    1  UNL1        0.2626
     23 H          14.9812   73.0261   -4.2527 H       1  UNL1        0.1734
     24 O          21.8882   71.9668   -4.8146 O.3     1  UNL1       -0.2703
     25 P          22.9207   71.9978   -3.5710 P.3     1  UNL1        0.2208
     26 O          24.0005   73.1192   -4.0147 O.co2   1  UNL1       -0.4371
     27 O          23.5187   70.6627   -3.2337 O.2     1  UNL1       -0.5170
     28 O          22.0924   72.6835   -2.3684 O.3     1  UNL1       -0.2858
     29 O          21.5395   70.9089   -0.9006 O.3     1  UNL1       -0.3226
     30 O          20.0721   74.1826    1.1482 O.3     1  UNL1       -0.3794
     31 O          19.6995   73.9545   -1.7404 O.3     1  UNL1       -0.3775
     32 O          22.5454   72.9157    2.0016 O.3     1  UNL1       -0.3792
     33 C          20.9596   73.4805    0.2779 C.3     1  UNL1        0.1718
     34 C          20.1732   72.9075   -0.9013 C.3     1  UNL1        0.1968
     35 C          21.6142   72.3530    1.0793 C.3     1  UNL1        0.1723
     36 C          21.0421   71.9600   -1.7297 C.3     1  UNL1        0.2706
     37 C          22.3572   71.3805    0.1680 C.3     1  UNL1        0.1830
     38 H          19.6443   74.9041    0.6605 H       1  UNL1        0.2105
     39 H          19.1476   74.5597   -1.2212 H       1  UNL1        0.2106
     40 H          22.0852   73.5367    2.5875 H       1  UNL1        0.2106
     41 O          22.2529   69.0382    0.2323 O.co2   1  UNL1       -0.5466
     42 O          23.3170   70.0797    1.9591 O.co2   1  UNL1       -0.5466
     43 C          22.7060   70.1267    0.9020 C.2     1  UNL1        0.0799
@<TRIPOS>UNITY_ATOM_ATTR
2 1
charge -1
26 1
charge -1
41 1
charge -1
@<TRIPOS>BOND
     1     1     4    1
     2     1    24    1
     3     1     2    1
     4     1     3    2
     5    25    28    1
     6    25    24    1
     7    25    26    1
     8    25    27    2
     9     6    11    1
    10     6    12    1
    11    29    36    1
    12    29    37    1
    13     7     9    1
    14     7    13    1
    15     8    10    1
    16     8    14    1
    17     4     5    1
    18    28    36    1
    19    30    33    1
    20    30    38    1
    21    31    34    1
    22    31    39    1
    23    32    35    1
    24    32    40    1
    25    41    43   ar
    26    15    19    2
    27    42    43   ar
    28    16    22    2
    29    17    12    1
    30    17    19   ar
    31    17    20   ar
    32    18    19   ar
    33    18    22   ar
    34    18    23    1
    35     9    10    1
    36     9    11    1
    37    10    12    1
    38    11     5    1
    39    33    34    1
    40    33    35    1
    41    34    36    1
    42    35    37    1
    43    37    43    1
    44    20    21   ar
    45    21    22   ar
@<TRIPOS>MOLECULE
*****
 43 45 0 0 0
SMALL
GASTEIGER

@<TRIPOS>ATOM
      1 P          22.0549   73.4621   -5.4100 P.3     1  UNL1        0.2189
      2 O          22.0585   75.0434   -5.7540 O.co2   1  UNL1       -0.4371
      3 O          23.3657   72.9165   -4.9242 O.2     1  UNL1       -0.5170
      4 O          21.4605   72.7746   -6.7487 O.3     1  UNL1       -0.3112
      5 C          20.6132   73.5421   -7.5838 C.3     1  UNL1        0.1811
      6 O          19.8525   71.3072   -8.0358 O.3     1  UNL1       -0.3308
      7 O          18.2671   72.5009  -10.2838 O.3     1  UNL1       -0.3794
      8 O          16.3847   72.1655   -8.3395 O.3     1  UNL1       -0.3779
      9 C          18.5559   73.0423   -8.9946 C.3     1  UNL1        0.1713
     10 C          17.7259   72.3472   -7.9362 C.3     1  UNL1        0.1895
     11 C          19.9702   72.6245   -8.6157 C.3     1  UNL1        0.1764
     12 C          18.4685   71.0329   -7.7659 C.3     1  UNL1        0.2383
     13 H          17.3683   72.7546  -10.5474 H       1  UNL1        0.2105
     14 H          15.9554   73.0308   -8.4338 H       1  UNL1        0.2106
     15 O          16.1380   69.8096   -6.7418 O.2     1  UNL1       -0.2464
     16 O          18.1196   69.0382   -2.6525 O.2     1  UNL1       -0.2670
     17 N          18.3480   70.5035   -6.4370 N.ar    1  UNL1       -0.2551
     18 N          17.1268   69.4275   -4.7058 N.ar    1  UNL1       -0.2743
     19 C          17.1330   69.9093   -6.0214 C.ar    1  UNL1        0.3323
     20 C          19.4251   70.5743   -5.5619 C.ar    1  UNL1        0.0869
     21 C          19.4042   70.1105   -4.3108 C.ar    1  UNL1        0.0795
     22 C          18.1724   69.4756   -3.7980 C.ar    1  UNL1        0.2626
     23 H          16.2912   69.0113   -4.3931 H       1  UNL1        0.1734
     24 O          20.8359   73.3223   -4.3577 O.3     1  UNL1       -0.2703
     25 P          20.6404   73.9311   -2.8729 P.3     1  UNL1        0.2208
     26 O          19.0392   74.1441   -2.7683 O.co2   1  UNL1       -0.4371
     27 O          21.4477   75.1678   -2.6031 O.2     1  UNL1       -0.5170
     28 O          20.9528   72.6981   -1.8806 O.3     1  UNL1       -0.2858
     29 O          22.7894   73.2609   -0.4953 O.3     1  UNL1       -0.3226
     30 O          21.9713   69.3984    0.7213 O.3     1  UNL1       -0.3794
     31 O          21.9190   70.1004   -2.1140 O.3     1  UNL1       -0.3775
     32 O          21.1876   71.6494    2.3857 O.3     1  UNL1       -0.3792
     33 C          21.6640   70.7004    0.2229 C.3     1  UNL1        0.1718
     34 C          22.4229   70.9409   -1.0824 C.3     1  UNL1        0.1968
     35 C          22.0859   71.7232    1.2801 C.3     1  UNL1        0.1723
     36 C          22.3015   72.3998   -1.5249 C.3     1  UNL1        0.2706
     37 C          22.0583   73.1437    0.7233 C.3     1  UNL1        0.1830
     38 H          21.7119   68.7316    0.0661 H       1  UNL1        0.2105
     39 H          21.9927   69.1731   -1.8398 H       1  UNL1        0.2106
     40 H          21.1956   70.7502    2.7493 H       1  UNL1        0.2106
     41 O          23.8204   74.6670    0.9987 O.co2   1  UNL1       -0.5466
     42 O          22.4652   74.3081    2.7969 O.co2   1  UNL1       -0.5466
     43 C          22.7743   74.0852    1.6360 C.2     1  UNL1        0.0799
@<TRIPOS>UNITY_ATOM_ATTR
2 1
charge -1
26 1
charge -1
41 1
charge -1
@<TRIPOS>BOND
     1     1     4    1
     2     1    24    1
     3     1     2    1
     4     1     3    2
     5    25    28    1
     6    25    24    1
     7    25    26    1
     8    25    27    2
     9     6    11    1
    10     6    12    1
    11    29    36    1
    12    29    37    1
    13     7     9    1
    14     7    13    1
    15     8    10    1
    16     8    14    1
    17     4     5    1
    18    28    36    1
    19    30    33    1
    20    30    38    1
    21    31    34    1
    22    31    39    1
    23    32    35    1
    24    32    40    1
    25    41    43   ar
    26    15    19    2
    27    42    43   ar
    28    16    22    2
    29    17    12    1
    30    17    19   ar
    31    17    20   ar
    32    18    19   ar
    33    18    22   ar
    34    18    23    1
    35     9    10    1
    36     9    11    1
    37    10    12    1
    38    11     5    1
    39    33    34    1
    40    33    35    1
    41    34    36    1
    42    35    37    1
    43    37    43    1
    44    20    21   ar
    45    21    22   ar
@<TRIPOS>MOLECULE
*****
 43 45 0 0 0
SMALL
GASTEIGER

@<TRIPOS>ATOM
      1 P          21.6775   70.3236   -0.3401 P.3     1  UNL1        0.2189
      2 O          22.6939   70.7048   -1.5403 O.co2   1  UNL1       -0.4371
      3 O          22.1984   69.3062    0.6322 O.2     1  UNL1       -0.5170
      4 O          20.3063   69.9289   -1.1029 O.3     1  UNL1       -0.3112
      5 C          20.2297   70.1283   -2.5025 C.3     1  UNL1        0.1811
      6 O          19.1661   72.0330   -3.5116 O.3     1  UNL1       -0.3308
      7 O          16.6846   70.3535   -3.6250 O.3     1  UNL1       -0.3794
      8 O          17.6214   70.2059   -6.1817 O.3     1  UNL1       -0.3779
      9 C          18.0474   69.9651   -3.8000 C.3     1  UNL1        0.1713
     10 C          18.5564   70.4313   -5.1475 C.3     1  UNL1        0.1895
     11 C          18.8966   70.7845   -2.8378 C.3     1  UNL1        0.1764
     12 C          18.8059   71.9087   -4.8966 C.3     1  UNL1        0.2383
     13 H          16.1225   69.8432   -4.2295 H       1  UNL1        0.2105
     14 H          17.4974   69.2509   -6.3029 H       1  UNL1        0.2106
     15 O          18.5028   72.7839   -7.5646 O.2     1  UNL1       -0.2464
     16 O          22.9650   73.8880   -7.9017 O.2     1  UNL1       -0.2670
     17 N          19.8718   72.4295   -5.7049 N.ar    1  UNL1       -0.2551
     18 N          20.7258   73.3320   -7.7303 N.ar    1  UNL1       -0.2743
     19 C          19.6135   72.8414   -7.0337 C.ar    1  UNL1        0.3323
     20 C          21.1547   72.5295   -5.1804 C.ar    1  UNL1        0.0869
     21 C          22.2048   72.9994   -5.8566 C.ar    1  UNL1        0.0795
     22 C          22.0206   73.4502   -7.2517 C.ar    1  UNL1        0.2626
     23 H          20.5711   73.6231   -8.6580 H       1  UNL1        0.1734
     24 O          21.3299   71.7615    0.3115 O.3     1  UNL1       -0.2703
     25 P          22.0936   73.1831    0.2150 P.3     1  UNL1        0.2208
     26 O          20.9911   74.1494   -0.4714 O.co2   1  UNL1       -0.4371
     27 O          23.4063   73.1289   -0.5115 O.2     1  UNL1       -0.5170
     28 O          22.1935   73.6985    1.7404 O.3     1  UNL1       -0.2858
     29 O          23.8902   73.4446    3.3731 O.3     1  UNL1       -0.3226
     30 O          20.4710   73.3306    5.6892 O.3     1  UNL1       -0.3794
     31 O          20.5778   71.9155    3.1357 O.3     1  UNL1       -0.3775
     32 O          22.1261   75.7201    5.6474 O.3     1  UNL1       -0.3792
     33 C          21.2848   73.7277    4.5855 C.3     1  UNL1        0.1718
     34 C          21.7033   72.4925    3.7877 C.3     1  UNL1        0.1968
     35 C          22.5171   74.4454    5.1407 C.3     1  UNL1        0.1723
     36 C          22.7573   72.8500    2.7388 C.3     1  UNL1        0.2706
     37 C          23.5745   74.6534    4.0603 C.3     1  UNL1        0.1830
     38 H          19.6816   72.8721    5.3607 H       1  UNL1        0.2105
     39 H          19.9049   71.6865    3.7953 H       1  UNL1        0.2106
     40 H          21.4531   75.6019    6.3359 H       1  UNL1        0.2106
     41 O          24.9688   76.3941    4.7866 O.co2   1  UNL1       -0.5466
     42 O          25.7576   74.2666    5.0120 O.co2   1  UNL1       -0.5466
     43 C          24.8823   75.0461    4.6667 C.2     1  UNL1        0.0799
@<TRIPOS>UNITY_ATOM_ATTR
2 1
charge -1
26 1
charge -1
41 1
charge -1
@<TRIPOS>BOND
     1     1     4    1
     2     1    24    1
     3     1     2    1
     4     1     3    2
     5    25    28    1
     6    25    24    1
     7    25    26    1
     8    25    27    2
     9     6    11    1
    10     6    12    1
    11    29    36    1
    12    29    37    1
    13     7     9    1
    14     7    13    1
    15     8    10    1
    16     8    14    1
    17     4     5    1
    18    28    36    1
    19    30    33    1
    20    30    38    1
    21    31    34    1
    22    31    39    1
    23    32    35    1
    24    32    40    1
    25    41    43   ar
    26    15    19    2
    27    42    43   ar
    28    16    22    2
    29    17    12    1
    30    17    19   ar
    31    17    20   ar
    32    18    19   ar
    33    18    22   ar
    34    18    23    1
    35     9    10    1
    36     9    11    1
    37    10    12    1
    38    11     5    1
    39    33    34    1
    40    33    35    1
    41    34    36    1
    42    35    37    1
    43    37    43    1
    44    20    21   ar
    45    21    22   ar
@<TRIPOS>MOLECULE
*****
 43 45 0 0 0
SMALL
GASTEIGER

@<TRIPOS>ATOM
      1 P          16.2781   73.4972   -4.2903 P.3     1  UNL1        0.2189
      2 O          14.9041   72.6494   -4.4016 O.co2   1  UNL1       -0.4371
      3 O          16.3071   74.5148   -3.1878 O.2     1  UNL1       -0.5170
      4 O          16.5006   74.0745   -5.7853 O.3     1  UNL1       -0.3112
      5 C          16.6288   75.4739   -5.9576 C.3     1  UNL1        0.1811
      6 O          18.9103   74.7275   -6.0813 O.3     1  UNL1       -0.3308
      7 O          19.6650   77.6296   -6.0711 O.3     1  UNL1       -0.3794
      8 O          19.8765   76.9682   -8.7081 O.3     1  UNL1       -0.3779
      9 C          18.5409   76.9903   -6.6764 C.3     1  UNL1        0.1713
     10 C          18.9731   76.2299   -7.9122 C.3     1  UNL1        0.1895
     11 C          18.0863   75.8674   -5.7542 C.3     1  UNL1        0.1764
     12 C          19.6046   74.9854   -7.3121 C.3     1  UNL1        0.2383
     13 H          19.9734   78.3509   -6.6422 H       1  UNL1        0.2105
     14 H          19.4270   77.7498   -9.0671 H       1  UNL1        0.2106
     15 O          17.4480   74.5463   -9.0820 O.2     1  UNL1       -0.2464
     16 O          19.2262   70.5549  -10.5485 O.2     1  UNL1       -0.2670
     17 N          19.4788   73.8399   -8.1680 N.ar    1  UNL1       -0.2551
     18 N          18.3352   72.5583   -9.8100 N.ar    1  UNL1       -0.2743
     19 C          18.3558   73.7150   -9.0197 C.ar    1  UNL1        0.3323
     20 C          20.4608   72.8567   -8.1599 C.ar    1  UNL1        0.0869
     21 C          20.4274   71.7597   -8.9190 C.ar    1  UNL1        0.0795
     22 C          19.2877   71.5525   -9.8363 C.ar    1  UNL1        0.2626
     23 H          17.5621   72.4483  -10.4096 H       1  UNL1        0.1734
     24 O          17.4065   72.3457   -4.1736 O.3     1  UNL1       -0.2703
     25 P          17.6108   71.1659   -3.0874 P.3     1  UNL1        0.2208
     26 O          17.2136   69.8309   -3.9122 O.co2   1  UNL1       -0.4371
     27 O          16.8377   71.3596   -1.8151 O.2     1  UNL1       -0.5170
     28 O          19.2086   71.0627   -2.8908 O.3     1  UNL1       -0.2858
     29 O          20.6549   71.3259   -1.0338 O.3     1  UNL1       -0.3226
     30 O          22.8540   73.0691   -4.0658 O.3     1  UNL1       -0.3794
     31 O          19.9814   73.5558   -3.8517 O.3     1  UNL1       -0.3775
     32 O          23.5569   70.4227   -3.0893 O.3     1  UNL1       -0.3792
     33 C          21.9251   72.1487   -3.4931 C.3     1  UNL1        0.1718
     34 C          20.7700   72.9192   -2.8530 C.3     1  UNL1        0.1968
     35 C          22.6655   71.3251   -2.4370 C.3     1  UNL1        0.1723
     36 C          19.8775   71.9860   -2.0336 C.3     1  UNL1        0.2706
     37 C          21.6954   70.5178   -1.5792 C.3     1  UNL1        0.1830
     38 H          22.4058   73.6037   -4.7401 H       1  UNL1        0.2105
     39 H          20.5415   74.1492   -4.3757 H       1  UNL1        0.2106
     40 H          24.1796   70.9239   -3.6388 H       1  UNL1        0.2106
     41 O          21.4756   69.6862    0.6029 O.co2   1  UNL1       -0.5466
     42 O          23.5867   69.8356   -0.2455 O.co2   1  UNL1       -0.5466
     43 C          22.3798   69.9857   -0.3624 C.2     1  UNL1        0.0799
@<TRIPOS>UNITY_ATOM_ATTR
2 1
charge -1
26 1
charge -1
41 1
charge -1
@<TRIPOS>BOND
     1     1     4    1
     2     1    24    1
     3     1     2    1
     4     1     3    2
     5    25    28    1
     6    25    24    1
     7    25    26    1
     8    25    27    2
     9     6    11    1
    10     6    12    1
    11    29    36    1
    12    29    37    1
    13     7     9    1
    14     7    13    1
    15     8    10    1
    16     8    14    1
    17     4     5    1
    18    28    36    1
    19    30    33    1
    20    30    38    1
    21    31    34    1
    22    31    39    1
    23    32    35    1
    24    32    40    1
    25    41    43   ar
    26    15    19    2
    27    42    43   ar
    28    16    22    2
    29    17    12    1
    30    17    19   ar
    31    17    20   ar
    32    18    19   ar
    33    18    22   ar
    34    18    23    1
    35     9    10    1
    36     9    11    1
    37    10    12    1
    38    11     5    1
    39    33    34    1
    40    33    35    1
    41    34    36    1
    42    35    37    1
    43    37    43    1
    44    20    21   ar
    45    21    22   ar
@<TRIPOS>MOLECULE
*****
 43 45 0 0 0
SMALL
GASTEIGER

@<TRIPOS>ATOM
      1 P          18.9270   70.3933   -3.6892 P.3     1  UNL1        0.2189
      2 O          20.4019   69.7504   -3.8628 O.co2   1  UNL1       -0.4371
      3 O          18.1512   69.8892   -2.5077 O.2     1  UNL1       -0.5170
      4 O          18.2328   70.1686   -5.1333 O.3     1  UNL1       -0.3112
      5 C          18.8336   70.7586   -6.2715 C.3     1  UNL1        0.1811
      6 O          18.6071   73.0895   -6.8128 O.3     1  UNL1       -0.3308
      7 O          16.2747   72.2769   -8.5131 O.3     1  UNL1       -0.3794
      8 O          18.2650   72.6029  -10.3484 O.3     1  UNL1       -0.3779
      9 C          17.5024   71.5882   -8.2745 C.3     1  UNL1        0.1713
     10 C          18.6326   72.2547   -9.0300 C.3     1  UNL1        0.1895
     11 C          17.9023   71.8292   -6.8253 C.3     1  UNL1        0.1764
     12 C          18.9189   73.4687   -8.1627 C.3     1  UNL1        0.2383
     13 H          15.9989   72.1376   -9.4330 H       1  UNL1        0.2105
     14 H          18.0936   71.7962  -10.8600 H       1  UNL1        0.2106
     15 O          21.1097   71.6872   -8.2175 O.2     1  UNL1       -0.2464
     16 O          24.1511   75.1450   -8.4114 O.2     1  UNL1       -0.2670
     17 N          20.2938   73.8764   -8.2275 N.ar    1  UNL1       -0.2551
     18 N          22.6224   73.4111   -8.3130 N.ar    1  UNL1       -0.2743
     19 C          21.3189   72.9013   -8.2501 C.ar    1  UNL1        0.3323
     20 C          20.6153   75.2277   -8.2695 C.ar    1  UNL1        0.0869
     21 C          21.8626   75.6983   -8.3294 C.ar    1  UNL1        0.0795
     22 C          22.9919   74.7457   -8.3559 C.ar    1  UNL1        0.2626
     23 H          23.3531   72.7514   -8.3278 H       1  UNL1        0.1734
     24 O          19.2234   71.9822   -3.6718 O.3     1  UNL1       -0.2703
     25 P          20.6151   72.8030   -3.7297 P.3     1  UNL1        0.2208
     26 O          20.1347   74.3282   -3.9817 O.co2   1  UNL1       -0.4371
     27 O          21.5927   72.2868   -4.7454 O.2     1  UNL1       -0.5170
     28 O          21.1595   72.7933   -2.2112 O.3     1  UNL1       -0.2858
     29 O          20.8412   71.2700   -0.4258 O.3     1  UNL1       -0.3226
     30 O          20.9646   74.8868    1.5670 O.3     1  UNL1       -0.3794
     31 O          19.4975   74.6301   -0.9462 O.3     1  UNL1       -0.3775
     32 O          23.2556   73.0990    1.6449 O.3     1  UNL1       -0.3792
     33 C          21.2941   73.9542    0.5376 C.3     1  UNL1        0.1718
     34 C          20.0223   73.5371   -0.2013 C.3     1  UNL1        0.1968
     35 C          21.9514   72.7380    1.1939 C.3     1  UNL1        0.1723
     36 C          20.2996   72.3730   -1.1535 C.3     1  UNL1        0.2706
     37 C          22.0788   71.5763    0.2127 C.3     1  UNL1        0.1830
     38 H          20.5454   75.6683    1.1735 H       1  UNL1        0.2105
     39 H          19.3195   75.3725   -0.3483 H       1  UNL1        0.2106
     40 H          23.1887   73.8376    2.2700 H       1  UNL1        0.2106
     41 O          21.6353   69.2890    0.4824 O.co2   1  UNL1       -0.5466
     42 O          23.2573   70.1967    1.8030 O.co2   1  UNL1       -0.5466
     43 C          22.4083   70.3086    0.9314 C.2     1  UNL1        0.0799
@<TRIPOS>UNITY_ATOM_ATTR
2 1
charge -1
26 1
charge -1
41 1
charge -1
@<TRIPOS>BOND
     1     1     4    1
     2     1    24    1
     3     1     2    1
     4     1     3    2
     5    25    28    1
     6    25    24    1
     7    25    26    1
     8    25    27    2
     9     6    11    1
    10     6    12    1
    11    29    36    1
    12    29    37    1
    13     7     9    1
    14     7    13    1
    15     8    10    1
    16     8    14    1
    17     4     5    1
    18    28    36    1
    19    30    33    1
    20    30    38    1
    21    31    34    1
    22    31    39    1
    23    32    35    1
    24    32    40    1
    25    41    43   ar
    26    15    19    2
    27    42    43   ar
    28    16    22    2
    29    17    12    1
    30    17    19   ar
    31    17    20   ar
    32    18    19   ar
    33    18    22   ar
    34    18    23    1
    35     9    10    1
    36     9    11    1
    37    10    12    1
    38    11     5    1
    39    33    34    1
    40    33    35    1
    41    34    36    1
    42    35    37    1
    43    37    43    1
    44    20    21   ar
    45    21    22   ar
@<TRIPOS>MOLECULE
*****
 43 45 0 0 0
SMALL
GASTEIGER

@<TRIPOS>ATOM
      1 P          21.9948   73.3788   -5.0439 P.3     1  UNL1        0.2189
      2 O          22.8178   74.0732   -6.2519 O.co2   1  UNL1       -0.4371
      3 O          22.2716   71.9172   -4.8468 O.2     1  UNL1       -0.5170
      4 O          20.4542   73.7671   -5.3497 O.3     1  UNL1       -0.3112
      5 C          19.5600   73.8951   -4.2595 C.3     1  UNL1        0.1811
      6 O          18.3084   74.6382   -6.1724 O.3     1  UNL1       -0.3308
      7 O          15.9737   74.9022   -4.3095 O.3     1  UNL1       -0.3794
      8 O          15.4631   72.5407   -5.5737 O.3     1  UNL1       -0.3779
      9 C          17.0167   73.9273   -4.3185 C.3     1  UNL1        0.1713
     10 C          16.8099   72.9490   -5.4553 C.3     1  UNL1        0.1895
     11 C          18.3071   74.6238   -4.7284 C.3     1  UNL1        0.1764
     12 C          17.2847   73.7529   -6.6537 C.3     1  UNL1        0.2383
     13 H          15.1389   74.4807   -4.0504 H       1  UNL1        0.2105
     14 H          15.2089   72.0326   -4.7868 H       1  UNL1        0.2106
     15 O          17.5003   74.5148   -9.3647 O.2     1  UNL1       -0.2464
     16 O          19.4084   70.4856  -10.5347 O.2     1  UNL1       -0.2670
     17 N          17.8339   72.9224   -7.6879 N.ar    1  UNL1       -0.2551
     18 N          18.4495   72.5069   -9.9450 N.ar    1  UNL1       -0.2743
     19 C          17.8962   73.4003   -9.0183 C.ar    1  UNL1        0.3323
     20 C          18.3048   71.6518   -7.3802 C.ar    1  UNL1        0.0869
     21 C          18.8296   70.8117   -8.2744 C.ar    1  UNL1        0.0795
     22 C          18.9305   71.2335   -9.6870 C.ar    1  UNL1        0.2626
     23 H          18.5015   72.8165  -10.8782 H       1  UNL1        0.1734
     24 O          22.3592   74.3103   -3.7740 O.3     1  UNL1       -0.2703
     25 P          23.5975   74.2531   -2.7363 P.3     1  UNL1        0.2208
     26 O          23.4650   75.6477   -1.9252 O.co2   1  UNL1       -0.4371
     27 O          24.9347   74.0393   -3.3844 O.2     1  UNL1       -0.5170
     28 O          23.1829   73.1190   -1.6665 O.3     1  UNL1       -0.2858
     29 O          21.0412   72.1096   -1.7237 O.3     1  UNL1       -0.3226
     30 O          22.2754   71.2454    2.1231 O.3     1  UNL1       -0.3794
     31 O          22.7554   73.8873    0.9722 O.3     1  UNL1       -0.3775
     32 O          22.3087   69.1770    0.0806 O.3     1  UNL1       -0.3792
     33 C          22.4391   71.4944    0.7270 C.3     1  UNL1        0.1718
     34 C          21.9194   72.8927    0.3921 C.3     1  UNL1        0.1968
     35 C          21.6450   70.4338   -0.0389 C.3     1  UNL1        0.1723
     36 C          21.8650   73.1083   -1.1209 C.3     1  UNL1        0.2706
     37 C          21.5293   70.7856   -1.5192 C.3     1  UNL1        0.1830
     38 H          22.7715   71.9073    2.6301 H       1  UNL1        0.2105
     39 H          22.7947   73.7563    1.9323 H       1  UNL1        0.2106
     40 H          22.3889   68.9415    1.0182 H       1  UNL1        0.2106
     41 O          19.3275   70.6199   -2.3104 O.co2   1  UNL1       -0.5466
     42 O          20.6668   68.7931   -2.5717 O.co2   1  UNL1       -0.5466
     43 C          20.4940   69.9396   -2.1861 C.2     1  UNL1        0.0799
@<TRIPOS>UNITY_ATOM_ATTR
2 1
charge -1
26 1
charge -1
41 1
charge -1
@<TRIPOS>BOND
     1     1     4    1
     2     1    24    1
     3     1     2    1
     4     1     3    2
     5    25    28    1
     6    25    24    1
     7    25    26    1
     8    25    27    2
     9     6    11    1
    10     6    12    1
    11    29    36    1
    12    29    37    1
    13     7     9    1
    14     7    13    1
    15     8    10    1
    16     8    14    1
    17     4     5    1
    18    28    36    1
    19    30    33    1
    20    30    38    1
    21    31    34    1
    22    31    39    1
    23    32    35    1
    24    32    40    1
    25    41    43   ar
    26    15    19    2
    27    42    43   ar
    28    16    22    2
    29    17    12    1
    30    17    19   ar
    31    17    20   ar
    32    18    19   ar
    33    18    22   ar
    34    18    23    1
    35     9    10    1
    36     9    11    1
    37    10    12    1
    38    11     5    1
    39    33    34    1
    40    33    35    1
    41    34    36    1
    42    35    37    1
    43    37    43    1
    44    20    21   ar
    45    21    22   ar
@<TRIPOS>MOLECULE
*****
 43 45 0 0 0
SMALL
GASTEIGER

@<TRIPOS>ATOM
      1 P          22.0483   72.9396   -5.0476 P.3     1  UNL1        0.2189
      2 O          21.1655   74.2828   -5.2353 O.co2   1  UNL1       -0.4371
      3 O          23.4802   73.1711   -4.6629 O.2     1  UNL1       -0.5170
      4 O          21.8139   72.1248   -6.4257 O.3     1  UNL1       -0.3112
      5 C          21.3773   72.8391   -7.5675 C.3     1  UNL1        0.1811
      6 O          19.8421   70.9896   -7.5457 O.3     1  UNL1       -0.3308
      7 O          19.0220   71.8789  -10.2894 O.3     1  UNL1       -0.3794
      8 O          17.0168   72.8575   -8.7216 O.3     1  UNL1       -0.3779
      9 C          19.4008   72.6659   -9.1600 C.3     1  UNL1        0.1713
     10 C          18.2882   72.6789   -8.1332 C.3     1  UNL1        0.1895
     11 C          20.5074   71.9255   -8.4213 C.3     1  UNL1        0.1764
     12 C          18.4446   71.3155   -7.4815 C.3     1  UNL1        0.2383
     13 H          18.3158   72.3318  -10.7773 H       1  UNL1        0.2105
     14 H          16.9671   73.7400   -9.1225 H       1  UNL1        0.2106
     15 O          18.1070   73.6406   -5.9141 O.2     1  UNL1       -0.2464
     16 O          16.8401   71.1889   -2.2225 O.2     1  UNL1       -0.2670
     17 N          18.0274   71.3137   -6.1079 N.ar    1  UNL1       -0.2551
     18 N          17.4773   72.4173   -4.0767 N.ar    1  UNL1       -0.2743
     19 C          17.8886   72.5371   -5.4107 C.ar    1  UNL1        0.3323
     20 C          17.7590   70.1107   -5.4662 C.ar    1  UNL1        0.0869
     21 C          17.3676   70.0124   -4.1942 C.ar    1  UNL1        0.0795
     22 C          17.1992   71.2437   -3.3948 C.ar    1  UNL1        0.2626
     23 H          17.3757   73.2554   -3.5702 H       1  UNL1        0.1734
     24 O          21.1914   72.0894   -3.9725 O.3     1  UNL1       -0.2703
     25 P          21.6074   70.8429   -3.0307 P.3     1  UNL1        0.2208
     26 O          23.1992   70.7002   -3.2878 O.co2   1  UNL1       -0.4371
     27 O          20.8244   69.5882   -3.2885 O.2     1  UNL1       -0.5170
     28 O          21.4873   71.4096   -1.5251 O.3     1  UNL1       -0.2858
     29 O          23.2714   72.6854   -0.6317 O.3     1  UNL1       -0.3226
     30 O          21.1608   71.6893    2.7772 O.3     1  UNL1       -0.3794
     31 O          21.5960   69.7096    0.6735 O.3     1  UNL1       -0.3775
     32 O          20.9823   74.3769    1.6836 O.3     1  UNL1       -0.3792
     33 C          21.3302   72.0102    1.3965 C.3     1  UNL1        0.1718
     34 C          22.2432   70.9751    0.7389 C.3     1  UNL1        0.1968
     35 C          21.9555   73.4041    1.3082 C.3     1  UNL1        0.1723
     36 C          22.6327   71.4089   -0.6750 C.3     1  UNL1        0.2706
     37 C          22.4318   73.7122   -0.1084 C.3     1  UNL1        0.1830
     38 H          20.7647   70.8074    2.8582 H       1  UNL1        0.2105
     39 H          21.3458   69.4283    1.5672 H       1  UNL1        0.2106
     40 H          20.6708   74.1921    2.5834 H       1  UNL1        0.2106
     41 O          23.6507   75.2759    1.1448 O.co2   1  UNL1       -0.5466
     42 O          23.7081   75.4898   -1.1245 O.co2   1  UNL1       -0.5466
     43 C          23.3223   74.9119   -0.1195 C.2     1  UNL1        0.0799
@<TRIPOS>UNITY_ATOM_ATTR
2 1
charge -1
26 1
charge -1
41 1
charge -1
@<TRIPOS>BOND
     1     1     4    1
     2     1    24    1
     3     1     2    1
     4     1     3    2
     5    25    28    1
     6    25    24    1
     7    25    26    1
     8    25    27    2
     9     6    11    1
    10     6    12    1
    11    29    36    1
    12    29    37    1
    13     7     9    1
    14     7    13    1
    15     8    10    1
    16     8    14    1
    17     4     5    1
    18    28    36    1
    19    30    33    1
    20    30    38    1
    21    31    34    1
    22    31    39    1
    23    32    35    1
    24    32    40    1
    25    41    43   ar
    26    15    19    2
    27    42    43   ar
    28    16    22    2
    29    17    12    1
    30    17    19   ar
    31    17    20   ar
    32    18    19   ar
    33    18    22   ar
    34    18    23    1
    35     9    10    1
    36     9    11    1
    37    10    12    1
    38    11     5    1
    39    33    34    1
    40    33    35    1
    41    34    36    1
    42    35    37    1
    43    37    43    1
    44    20    21   ar
    45    21    22   ar
@<TRIPOS>MOLECULE
*****
 43 45 0 0 0
SMALL
GASTEIGER

@<TRIPOS>ATOM
      1 P          19.1377   70.4004   -3.2959 P.3     1  UNL1        0.2189
      2 O          18.7765   69.0803   -2.4322 O.co2   1  UNL1       -0.4371
      3 O          18.7068   71.6987   -2.6790 O.2     1  UNL1       -0.5170
      4 O          18.5307   70.0835   -4.7620 O.3     1  UNL1       -0.3112
      5 C          19.1296   70.6969   -5.8887 C.3     1  UNL1        0.1811
      6 O          18.7230   72.9417   -6.6459 O.3     1  UNL1       -0.3308
      7 O          16.4712   71.7916   -8.2578 O.3     1  UNL1       -0.3794
      8 O          18.4395   72.1005  -10.1195 O.3     1  UNL1       -0.3779
      9 C          17.7481   71.2275   -7.9581 C.3     1  UNL1        0.1713
     10 C          18.8263   71.9074   -8.7750 C.3     1  UNL1        0.1895
     11 C          18.1198   71.6340   -6.5386 C.3     1  UNL1        0.1764
     12 C          19.0112   73.2162   -8.0261 C.3     1  UNL1        0.2383
     13 H          16.2123   71.5454   -9.1600 H       1  UNL1        0.2105
     14 H          18.3350   71.2383  -10.5528 H       1  UNL1        0.2106
     15 O          21.3319   71.6066   -8.0148 O.2     1  UNL1       -0.2464
     16 O          24.0964   75.2704   -8.4364 O.2     1  UNL1       -0.2670
     17 N          20.3501   73.7234   -8.1315 N.ar    1  UNL1       -0.2551
     18 N          22.7066   73.4330   -8.2238 N.ar    1  UNL1       -0.2743
     19 C          21.4468   72.8295   -8.1156 C.ar    1  UNL1        0.3323
     20 C          20.5663   75.0908   -8.2506 C.ar    1  UNL1        0.0869
     21 C          21.7731   75.6512   -8.3530 C.ar    1  UNL1        0.0795
     22 C          22.9719   74.7875   -8.3436 C.ar    1  UNL1        0.2626
     23 H          23.4857   72.8310   -8.2130 H       1  UNL1        0.1734
     24 O          20.7317   70.2596   -3.5244 O.3     1  UNL1       -0.2703
     25 P          21.9641   71.1587   -2.9892 P.3     1  UNL1        0.2208
     26 O          21.6891   72.6034   -3.6657 O.co2   1  UNL1       -0.4371
     27 O          23.3193   70.5849   -3.2858 O.2     1  UNL1       -0.5170
     28 O          21.6591   71.3790   -1.4205 O.3     1  UNL1       -0.2858
     29 O          23.2579   72.8410   -0.4636 O.3     1  UNL1       -0.3226
     30 O          21.0255   71.7584    2.8398 O.3     1  UNL1       -0.3794
     31 O          21.7755   69.7641    0.8411 O.3     1  UNL1       -0.3775
     32 O          20.6775   74.3834    1.6400 O.3     1  UNL1       -0.3792
     33 C          21.2559   72.0513    1.4617 C.3     1  UNL1        0.1718
     34 C          22.3001   71.0855    0.9009 C.3     1  UNL1        0.1968
     35 C          21.7572   73.4937    1.3622 C.3     1  UNL1        0.1723
     36 C          22.7413   71.5101   -0.5005 C.3     1  UNL1        0.2706
     37 C          22.2962   73.8012   -0.0319 C.3     1  UNL1        0.1830
     38 H          20.7062   70.8465    2.9278 H       1  UNL1        0.2105
     39 H          21.4934   69.4883    1.7269 H       1  UNL1        0.2106
     40 H          20.3253   74.1980    2.5245 H       1  UNL1        0.2106
     41 O          24.2322   74.9311    0.6586 O.co2   1  UNL1       -0.5466
     42 O          22.7222   76.1131   -0.5750 O.co2   1  UNL1       -0.5466
     43 C          23.0735   75.0772   -0.0306 C.2     1  UNL1        0.0799
@<TRIPOS>UNITY_ATOM_ATTR
2 1
charge -1
26 1
charge -1
41 1
charge -1
@<TRIPOS>BOND
     1     1     4    1
     2     1    24    1
     3     1     2    1
     4     1     3    2
     5    25    28    1
     6    25    24    1
     7    25    26    1
     8    25    27    2
     9     6    11    1
    10     6    12    1
    11    29    36    1
    12    29    37    1
    13     7     9    1
    14     7    13    1
    15     8    10    1
    16     8    14    1
    17     4     5    1
    18    28    36    1
    19    30    33    1
    20    30    38    1
    21    31    34    1
    22    31    39    1
    23    32    35    1
    24    32    40    1
    25    41    43   ar
    26    15    19    2
    27    42    43   ar
    28    16    22    2
    29    17    12    1
    30    17    19   ar
    31    17    20   ar
    32    18    19   ar
    33    18    22   ar
    34    18    23    1
    35     9    10    1
    36     9    11    1
    37    10    12    1
    38    11     5    1
    39    33    34    1
    40    33    35    1
    41    34    36    1
    42    35    37    1
    43    37    43    1
    44    20    21   ar
    45    21    22   ar
@<TRIPOS>MOLECULE
*****
 43 45 0 0 0
SMALL
GASTEIGER

@<TRIPOS>ATOM
      1 P          22.4024   71.4101   -2.3886 P.3     1  UNL1        0.2189
      2 O          22.0110   72.8414   -3.0344 O.co2   1  UNL1       -0.4371
      3 O          23.4757   70.6576   -3.1191 O.2     1  UNL1       -0.5170
      4 O          20.9827   70.6473   -2.2455 O.3     1  UNL1       -0.3112
      5 C          20.3420   70.1851   -3.4204 C.3     1  UNL1        0.1811
      6 O          19.1278   72.0738   -4.2783 O.3     1  UNL1       -0.3308
      7 O          16.6555   70.4187   -3.9037 O.3     1  UNL1       -0.3794
      8 O          17.1235   70.1934   -6.5807 O.3     1  UNL1       -0.3779
      9 C          17.9634   70.0112   -4.3061 C.3     1  UNL1        0.1713
     10 C          18.2283   70.4360   -5.7350 C.3     1  UNL1        0.1895
     11 C          18.9745   70.8466   -3.5328 C.3     1  UNL1        0.1764
     12 C          18.5271   71.9168   -5.5736 C.3     1  UNL1        0.2383
     13 H          15.9922   69.8988   -4.3846 H       1  UNL1        0.2105
     14 H          16.9743   69.2370   -6.6513 H       1  UNL1        0.2106
     15 O          17.7452   72.8547   -8.1202 O.2     1  UNL1       -0.2464
     16 O          22.1004   73.7641   -9.3240 O.2     1  UNL1       -0.2670
     17 N          19.4360   72.4044   -6.5720 N.ar    1  UNL1       -0.2551
     18 N          19.9152   73.3058   -8.7177 N.ar    1  UNL1       -0.2743
     19 C          18.9403   72.8525   -7.8193 C.ar    1  UNL1        0.3323
     20 C          20.8005   72.4370   -6.3111 C.ar    1  UNL1        0.0869
     21 C          21.7175   72.8720   -7.1775 C.ar    1  UNL1        0.0795
     22 C          21.2831   73.3568   -8.5040 C.ar    1  UNL1        0.2626
     23 H          19.5944   73.6209   -9.5936 H       1  UNL1        0.1734
     24 O          22.7669   71.7891   -0.8601 O.3     1  UNL1       -0.2703
     25 P          21.8187   72.1334    0.4032 P.3     1  UNL1        0.2208
     26 O          21.6401   70.6996    1.1332 O.co2   1  UNL1       -0.4371
     27 O          20.5273   72.8067    0.0384 O.2     1  UNL1       -0.5170
     28 O          22.7587   72.9839    1.4008 O.3     1  UNL1       -0.2858
     29 O          21.8176   74.4087    3.0420 O.3     1  UNL1       -0.3226
     30 O          25.6739   75.8665    2.7747 O.3     1  UNL1       -0.3794
     31 O          24.2011   75.1240    0.3635 O.3     1  UNL1       -0.3775
     32 O          24.8868   74.2295    5.0444 O.3     1  UNL1       -0.3792
     33 C          24.6513   74.8713    2.7341 C.3     1  UNL1        0.1718
     34 C          23.6256   75.2350    1.6601 C.3     1  UNL1        0.1968
     35 C          23.9852   74.8212    4.1110 C.3     1  UNL1        0.1723
     36 C          22.4013   74.3222    1.7415 C.3     1  UNL1        0.2706
     37 C          22.7031   73.9943    4.0798 C.3     1  UNL1        0.1830
     38 H          26.1114   75.9163    1.9101 H       1  UNL1        0.2105
     39 H          24.9787   75.7003    0.3049 H       1  UNL1        0.2106
     40 H          25.7072   74.7463    5.0737 H       1  UNL1        0.2106
     41 O          22.3472   73.4362    6.3300 O.co2   1  UNL1       -0.5466
     42 O          20.9618   74.9985    5.4142 O.co2   1  UNL1       -0.5466
     43 C          21.8972   74.2184    5.3178 C.2     1  UNL1        0.0799
@<TRIPOS>UNITY_ATOM_ATTR
2 1
charge -1
26 1
charge -1
41 1
charge -1
@<TRIPOS>BOND
     1     1     4    1
     2     1    24    1
     3     1     2    1
     4     1     3    2
     5    25    28    1
     6    25    24    1
     7    25    26    1
     8    25    27    2
     9     6    11    1
    10     6    12    1
    11    29    36    1
    12    29    37    1
    13     7     9    1
    14     7    13    1
    15     8    10    1
    16     8    14    1
    17     4     5    1
    18    28    36    1
    19    30    33    1
    20    30    38    1
    21    31    34    1
    22    31    39    1
    23    32    35    1
    24    32    40    1
    25    41    43   ar
    26    15    19    2
    27    42    43   ar
    28    16    22    2
    29    17    12    1
    30    17    19   ar
    31    17    20   ar
    32    18    19   ar
    33    18    22   ar
    34    18    23    1
    35     9    10    1
    36     9    11    1
    37    10    12    1
    38    11     5    1
    39    33    34    1
    40    33    35    1
    41    34    36    1
    42    35    37    1
    43    37    43    1
    44    20    21   ar
    45    21    22   ar
@<TRIPOS>MOLECULE
*****
 43 45 0 0 0
SMALL
GASTEIGER

@<TRIPOS>ATOM
      1 P          17.5455   74.5698   -1.2798 P.3     1  UNL1        0.2189
      2 O          16.2115   74.2244   -0.4312 O.co2   1  UNL1       -0.4371
      3 O          17.3914   75.6787   -2.2790 O.2     1  UNL1       -0.5170
      4 O          18.0039   73.1398   -1.8822 O.3     1  UNL1       -0.3112
      5 C          17.4827   72.7355   -3.1349 C.3     1  UNL1        0.1811
      6 O          16.8920   70.8134   -4.4519 O.3     1  UNL1       -0.3308
      7 O          18.1531   69.1714   -2.2828 O.3     1  UNL1       -0.3794
      8 O          20.0904   69.2129   -4.2015 O.3     1  UNL1       -0.3779
      9 C          18.5414   70.4478   -2.7916 C.3     1  UNL1        0.1713
     10 C          19.1846   70.2955   -4.1537 C.3     1  UNL1        0.1895
     11 C          17.2755   71.2265   -3.1224 C.3     1  UNL1        0.1764
     12 C          17.9768   70.0875   -5.0514 C.3     1  UNL1        0.2383
     13 H          18.9454   68.6555   -2.0643 H       1  UNL1        0.2105
     14 H          20.8414   69.3935   -3.6138 H       1  UNL1        0.2106
     15 O          16.0890   69.9056   -7.1441 O.2     1  UNL1       -0.2464
     16 O          18.9069   72.0211  -10.1154 O.2     1  UNL1       -0.2670
     17 N          18.1912   70.5826   -6.3818 N.ar    1  UNL1       -0.2551
     18 N          17.4947   70.9585   -8.6223 N.ar    1  UNL1       -0.2743
     19 C          17.1781   70.4407   -7.3594 C.ar    1  UNL1        0.3323
     20 C          19.3922   71.2015   -6.7064 C.ar    1  UNL1        0.0869
     21 C          19.6793   71.6901   -7.9145 C.ar    1  UNL1        0.0795
     22 C          18.6752   71.5817   -8.9931 C.ar    1  UNL1        0.2626
     23 H          16.8057   70.8696   -9.3200 H       1  UNL1        0.1734
     24 O          18.6457   74.8487   -0.1288 O.3     1  UNL1       -0.2703
     25 P          20.2154   75.2225   -0.2290 P.3     1  UNL1        0.2208
     26 O          20.6723   75.3192    1.3209 O.co2   1  UNL1       -0.4371
     27 O          20.5046   76.4544   -1.0370 O.2     1  UNL1       -0.5170
     28 O          20.9215   73.8803   -0.7788 O.3     1  UNL1       -0.2858
     29 O          22.5426   72.4885    0.2429 O.3     1  UNL1       -0.3226
     30 O          23.5258   72.1303   -3.7537 O.3     1  UNL1       -0.3794
     31 O          22.8133   74.7317   -2.6314 O.3     1  UNL1       -0.3775
     32 O          22.1318   69.9714   -2.3947 O.3     1  UNL1       -0.3792
     33 C          22.6549   72.3107   -2.6370 C.3     1  UNL1        0.1718
     34 C          23.0687   73.5621   -1.8622 C.3     1  UNL1        0.1968
     35 C          22.7660   71.0718   -1.7456 C.3     1  UNL1        0.1723
     36 C          22.3103   73.6614   -0.5380 C.3     1  UNL1        0.2706
     37 C          22.0925   71.2953   -0.3947 C.3     1  UNL1        0.1830
     38 H          23.4721   72.9056   -4.3345 H       1  UNL1        0.2105
     39 H          23.2913   74.6753   -3.4732 H       1  UNL1        0.2106
     40 H          22.5511   69.8186   -3.2560 H       1  UNL1        0.2106
     41 O          22.3119   70.6558    1.8513 O.co2   1  UNL1       -0.5466
     42 O          22.8980   69.1205    0.2707 O.co2   1  UNL1       -0.5466
     43 C          22.4831   70.2285    0.5757 C.2     1  UNL1        0.0799
@<TRIPOS>UNITY_ATOM_ATTR
2 1
charge -1
26 1
charge -1
41 1
charge -1
@<TRIPOS>BOND
     1     1     4    1
     2     1    24    1
     3     1     2    1
     4     1     3    2
     5    25    28    1
     6    25    24    1
     7    25    26    1
     8    25    27    2
     9     6    11    1
    10     6    12    1
    11    29    36    1
    12    29    37    1
    13     7     9    1
    14     7    13    1
    15     8    10    1
    16     8    14    1
    17     4     5    1
    18    28    36    1
    19    30    33    1
    20    30    38    1
    21    31    34    1
    22    31    39    1
    23    32    35    1
    24    32    40    1
    25    41    43   ar
    26    15    19    2
    27    42    43   ar
    28    16    22    2
    29    17    12    1
    30    17    19   ar
    31    17    20   ar
    32    18    19   ar
    33    18    22   ar
    34    18    23    1
    35     9    10    1
    36     9    11    1
    37    10    12    1
    38    11     5    1
    39    33    34    1
    40    33    35    1
    41    34    36    1
    42    35    37    1
    43    37    43    1
    44    20    21   ar
    45    21    22   ar
@<TRIPOS>MOLECULE
*****
 43 45 0 0 0
SMALL
GASTEIGER

@<TRIPOS>ATOM
      1 P          22.5178   72.9991   -4.6283 P.3     1  UNL1        0.2189
      2 O          21.6201   74.3318   -4.4362 O.co2   1  UNL1       -0.4371
      3 O          23.8872   73.0643   -4.0182 O.2     1  UNL1       -0.5170
      4 O          22.4711   72.7257   -6.2224 O.3     1  UNL1       -0.3112
      5 C          21.2616   72.9727   -6.9156 C.3     1  UNL1        0.1811
      6 O          19.1961   71.7547   -6.7482 O.3     1  UNL1       -0.3308
      7 O          20.3541   69.8775   -8.7796 O.3     1  UNL1       -0.3794
      8 O          18.6878   71.4273  -10.2821 O.3     1  UNL1       -0.3779
      9 C          20.5025   71.2933   -8.6694 C.3     1  UNL1        0.1713
     10 C          19.2306   71.9892   -9.1056 C.3     1  UNL1        0.1895
     11 C          20.5667   71.6451   -7.1894 C.3     1  UNL1        0.1764
     12 C          18.3330   71.7931   -7.8958 C.3     1  UNL1        0.2383
     13 H          20.3107   69.6286   -9.7165 H       1  UNL1        0.2105
     14 H          19.2960   71.5787  -11.0232 H       1  UNL1        0.2106
     15 O          15.9375   71.5961   -6.4128 O.2     1  UNL1       -0.2464
     16 O          14.7868   75.9607   -7.3455 O.2     1  UNL1       -0.2670
     17 N          17.3891   72.8626   -7.7346 N.ar    1  UNL1       -0.2551
     18 N          15.3662   73.7698   -6.8796 N.ar    1  UNL1       -0.2743
     19 C          16.2163   72.6597   -6.9695 C.ar    1  UNL1        0.3323
     20 C          17.6298   74.0955   -8.3288 C.ar    1  UNL1        0.0869
     21 C          16.8102   75.1443   -8.2341 C.ar    1  UNL1        0.0795
     22 C          15.5623   75.0156   -7.4533 C.ar    1  UNL1        0.2626
     23 H          14.5422   73.6520   -6.3538 H       1  UNL1        0.1734
     24 O          21.5696   71.8338   -4.0318 O.3     1  UNL1       -0.2703
     25 P          21.8731   70.6645   -2.9574 P.3     1  UNL1        0.2208
     26 O          23.4749   70.4621   -3.0736 O.co2   1  UNL1       -0.4371
     27 O          21.0744   69.4111   -3.1693 O.2     1  UNL1       -0.5170
     28 O          21.6542   71.3629   -1.5197 O.3     1  UNL1       -0.2858
     29 O          23.2901   72.7889   -0.5715 O.3     1  UNL1       -0.3226
     30 O          21.0707   71.7312    2.7486 O.3     1  UNL1       -0.3794
     31 O          21.7624   69.7339    0.7321 O.3     1  UNL1       -0.3775
     32 O          20.7610   74.3688    1.5662 O.3     1  UNL1       -0.3792
     33 C          21.2928   72.0271    1.3698 C.3     1  UNL1        0.1718
     34 C          22.3127   71.0446    0.7935 C.3     1  UNL1        0.1968
     35 C          21.8207   73.4602    1.2728 C.3     1  UNL1        0.1723
     36 C          22.7478   71.4683   -0.6101 C.3     1  UNL1        0.2706
     37 C          22.3514   73.7649   -0.1251 C.3     1  UNL1        0.1830
     38 H          20.7349   70.8251    2.8350 H       1  UNL1        0.2105
     39 H          21.4839   69.4587    1.6192 H       1  UNL1        0.2106
     40 H          20.4141   74.1854    2.4532 H       1  UNL1        0.2106
     41 O          24.4783   74.7505   -0.2048 O.co2   1  UNL1       -0.5466
     42 O          22.6865   76.1535   -0.0641 O.co2   1  UNL1       -0.5466
     43 C          23.1529   75.0258   -0.1250 C.2     1  UNL1        0.0799
@<TRIPOS>UNITY_ATOM_ATTR
2 1
charge -1
26 1
charge -1
41 1
charge -1
@<TRIPOS>BOND
     1     1     4    1
     2     1    24    1
     3     1     2    1
     4     1     3    2
     5    25    28    1
     6    25    24    1
     7    25    26    1
     8    25    27    2
     9     6    11    1
    10     6    12    1
    11    29    36    1
    12    29    37    1
    13     7     9    1
    14     7    13    1
    15     8    10    1
    16     8    14    1
    17     4     5    1
    18    28    36    1
    19    30    33    1
    20    30    38    1
    21    31    34    1
    22    31    39    1
    23    32    35    1
    24    32    40    1
    25    41    43   ar
    26    15    19    2
    27    42    43   ar
    28    16    22    2
    29    17    12    1
    30    17    19   ar
    31    17    20   ar
    32    18    19   ar
    33    18    22   ar
    34    18    23    1
    35     9    10    1
    36     9    11    1
    37    10    12    1
    38    11     5    1
    39    33    34    1
    40    33    35    1
    41    34    36    1
    42    35    37    1
    43    37    43    1
    44    20    21   ar
    45    21    22   ar
@<TRIPOS>MOLECULE
*****
 43 45 0 0 0
SMALL
GASTEIGER

@<TRIPOS>ATOM
      1 P          20.4807   70.8773   -2.8816 P.3     1  UNL1        0.2189
      2 O          21.5416   69.6588   -2.9744 O.co2   1  UNL1       -0.4371
      3 O          19.1474   70.6060   -3.5144 O.2     1  UNL1       -0.5170
      4 O          21.2935   72.1458   -3.4717 O.3     1  UNL1       -0.3112
      5 C          20.7396   72.8543   -4.5652 C.3     1  UNL1        0.1811
      6 O          20.1920   71.7570   -6.6325 O.3     1  UNL1       -0.3308
      7 O          22.8849   72.6494   -7.6040 O.3     1  UNL1       -0.3794
      8 O          21.2053   74.4647   -8.7528 O.3     1  UNL1       -0.3779
      9 C          21.9652   73.3235   -6.7447 C.3     1  UNL1        0.1713
     10 C          20.7964   73.8586   -7.5446 C.3     1  UNL1        0.1895
     11 C          21.2957   72.2794   -5.8616 C.3     1  UNL1        0.1764
     12 C          19.9684   72.6050   -7.7702 C.3     1  UNL1        0.2383
     13 H          23.3251   73.2962   -8.1781 H       1  UNL1        0.2105
     14 H          21.7286   75.2580   -8.5556 H       1  UNL1        0.2106
     15 O          18.0253   70.7378   -8.6154 O.2     1  UNL1       -0.2464
     16 O          14.6112   73.7960   -8.1299 O.2     1  UNL1       -0.2670
     17 N          18.5646   72.8867   -7.8739 N.ar    1  UNL1       -0.2551
     18 N          16.3269   72.2630   -8.3738 N.ar    1  UNL1       -0.2743
     19 C          17.6726   71.8783   -8.3091 C.ar    1  UNL1        0.3323
     20 C          18.0843   74.1485   -7.5451 C.ar    1  UNL1        0.0869
     21 C          16.7988   74.5003   -7.6116 C.ar    1  UNL1        0.0795
     22 C          15.8015   73.5055   -8.0579 C.ar    1  UNL1        0.2626
     23 H          15.6871   71.5784   -8.6761 H       1  UNL1        0.1734
     24 O          20.4229   71.1882   -1.2964 O.3     1  UNL1       -0.2703
     25 P          21.5293   70.9889   -0.1346 P.3     1  UNL1        0.2208
     26 O          22.8924   71.5214   -0.8267 O.co2   1  UNL1       -0.4371
     27 O          21.6140   69.5892    0.4015 O.2     1  UNL1       -0.5170
     28 O          21.1693   72.1083    0.9698 O.3     1  UNL1       -0.2858
     29 O          21.7775   74.3259    1.5370 O.3     1  UNL1       -0.3226
     30 O          22.0351   72.4220    5.1944 O.3     1  UNL1       -0.3794
     31 O          23.0424   71.1276    2.7769 O.3     1  UNL1       -0.3775
     32 O          19.7755   74.1540    4.6069 O.3     1  UNL1       -0.3792
     33 C          21.5236   72.6621    3.8834 C.3     1  UNL1        0.1718
     34 C          22.6443   72.4912    2.8576 C.3     1  UNL1        0.1968
     35 C          20.9784   74.0915    3.8430 C.3     1  UNL1        0.1723
     36 C          22.1953   72.9617    1.4734 C.3     1  UNL1        0.2706
     37 C          20.6722   74.5307    2.4141 C.3     1  UNL1        0.1830
     38 H          22.3872   71.5193    5.2440 H       1  UNL1        0.2105
     39 H          23.3283   70.8223    3.6518 H       1  UNL1        0.2106
     40 H          19.9566   73.8767    5.5186 H       1  UNL1        0.2106
     41 O          19.1991   76.3286    2.7294 O.co2   1  UNL1       -0.5466
     42 O          21.3021   76.8226    1.9996 O.co2   1  UNL1       -0.5466
     43 C          20.4601   76.0082    2.3472 C.2     1  UNL1        0.0799
@<TRIPOS>UNITY_ATOM_ATTR
2 1
charge -1
26 1
charge -1
41 1
charge -1
@<TRIPOS>BOND
     1     1     4    1
     2     1    24    1
     3     1     2    1
     4     1     3    2
     5    25    28    1
     6    25    24    1
     7    25    26    1
     8    25    27    2
     9     6    11    1
    10     6    12    1
    11    29    36    1
    12    29    37    1
    13     7     9    1
    14     7    13    1
    15     8    10    1
    16     8    14    1
    17     4     5    1
    18    28    36    1
    19    30    33    1
    20    30    38    1
    21    31    34    1
    22    31    39    1
    23    32    35    1
    24    32    40    1
    25    41    43   ar
    26    15    19    2
    27    42    43   ar
    28    16    22    2
    29    17    12    1
    30    17    19   ar
    31    17    20   ar
    32    18    19   ar
    33    18    22   ar
    34    18    23    1
    35     9    10    1
    36     9    11    1
    37    10    12    1
    38    11     5    1
    39    33    34    1
    40    33    35    1
    41    34    36    1
    42    35    37    1
    43    37    43    1
    44    20    21   ar
    45    21    22   ar
@<TRIPOS>MOLECULE
*****
 43 45 0 0 0
SMALL
GASTEIGER

@<TRIPOS>ATOM
      1 P          19.6220   71.2963   -3.6296 P.3     1  UNL1        0.2189
      2 O          19.6686   69.7148   -3.9695 O.co2   1  UNL1       -0.4371
      3 O          18.6678   71.6818   -2.5375 O.2     1  UNL1       -0.5170
      4 O          19.3651   71.9951   -5.0661 O.3     1  UNL1       -0.3112
      5 C          20.2703   71.7252   -6.1208 C.3     1  UNL1        0.1811
      6 O          18.1924   70.9207   -7.0222 O.3     1  UNL1       -0.3308
      7 O          19.8226   69.7736   -9.2623 O.3     1  UNL1       -0.3794
      8 O          18.7983   72.0439  -10.3726 O.3     1  UNL1       -0.3779
      9 C          20.0069   70.9931   -8.5430 C.3     1  UNL1        0.1713
     10 C          18.9758   72.0155   -8.9718 C.3     1  UNL1        0.1895
     11 C          19.6240   70.7443   -7.0905 C.3     1  UNL1        0.1764
     12 C          17.7353   71.5406   -8.2346 C.3     1  UNL1        0.2383
     13 H          20.0610   69.9078  -10.1933 H       1  UNL1        0.2105
     14 H          19.6153   72.3529  -10.7958 H       1  UNL1        0.2106
     15 O          16.0263   71.5651   -5.9863 O.2     1  UNL1       -0.2464
     16 O          14.3772   75.7339   -7.0568 O.2     1  UNL1       -0.2670
     17 N          16.8489   72.6197   -7.9019 N.ar    1  UNL1       -0.2551
     18 N          15.2058   73.6409   -6.5222 N.ar    1  UNL1       -0.2743
     19 C          16.0318   72.5324   -6.7500 C.ar    1  UNL1        0.3323
     20 C          16.7961   73.7484   -8.7107 C.ar    1  UNL1        0.0869
     21 C          16.0038   74.7972   -8.4805 C.ar    1  UNL1        0.0795
     22 C          15.1179   74.7855   -7.2979 C.ar    1  UNL1        0.2626
     23 H          14.6263   73.6023   -5.7272 H       1  UNL1        0.1734
     24 O          21.1703   71.6481   -3.3261 O.3     1  UNL1       -0.2703
     25 P          22.2013   71.0469   -2.2355 P.3     1  UNL1        0.2208
     26 O          23.5282   70.7404   -3.1106 O.co2   1  UNL1       -0.4371
     27 O          21.6741   69.8638   -1.4765 O.2     1  UNL1       -0.5170
     28 O          22.6037   72.3084   -1.3140 O.3     1  UNL1       -0.2858
     29 O          21.1631   72.8501    0.4861 O.3     1  UNL1       -0.3226
     30 O          23.5079   76.2423    0.2358 O.3     1  UNL1       -0.3794
     31 O          22.5131   74.9477   -2.1868 O.3     1  UNL1       -0.3775
     32 O          23.9574   74.3113    2.3618 O.3     1  UNL1       -0.3792
     33 C          23.2174   74.8484    0.1327 C.3     1  UNL1        0.1718
     34 C          22.0810   74.6351   -0.8676 C.3     1  UNL1        0.1968
     35 C          22.8072   74.3471    1.5192 C.3     1  UNL1        0.1723
     36 C          21.5879   73.1878   -0.8349 C.3     1  UNL1        0.2706
     37 C          22.2093   72.9448    1.4502 C.3     1  UNL1        0.1830
     38 H          23.7710   76.5831   -0.6337 H       1  UNL1        0.2105
     39 H          22.8276   75.8646   -2.2148 H       1  UNL1        0.2106
     40 H          24.3476   75.1978    2.4141 H       1  UNL1        0.2106
     41 O          22.3402   71.8842    3.5381 O.co2   1  UNL1       -0.5466
     42 O          20.3741   72.9144    3.0162 O.co2   1  UNL1       -0.5466
     43 C          21.5191   72.5988    2.7293 C.2     1  UNL1        0.0799
@<TRIPOS>UNITY_ATOM_ATTR
2 1
charge -1
26 1
charge -1
41 1
charge -1
@<TRIPOS>BOND
     1     1     4    1
     2     1    24    1
     3     1     2    1
     4     1     3    2
     5    25    28    1
     6    25    24    1
     7    25    26    1
     8    25    27    2
     9     6    11    1
    10     6    12    1
    11    29    36    1
    12    29    37    1
    13     7     9    1
    14     7    13    1
    15     8    10    1
    16     8    14    1
    17     4     5    1
    18    28    36    1
    19    30    33    1
    20    30    38    1
    21    31    34    1
    22    31    39    1
    23    32    35    1
    24    32    40    1
    25    41    43   ar
    26    15    19    2
    27    42    43   ar
    28    16    22    2
    29    17    12    1
    30    17    19   ar
    31    17    20   ar
    32    18    19   ar
    33    18    22   ar
    34    18    23    1
    35     9    10    1
    36     9    11    1
    37    10    12    1
    38    11     5    1
    39    33    34    1
    40    33    35    1
    41    34    36    1
    42    35    37    1
    43    37    43    1
    44    20    21   ar
    45    21    22   ar
