@<TRIPOS>MOLECULE
UD2
 46 48 0 0 0
SMALL
GASTEIGER

@<TRIPOS>ATOM
      1 P          22.1358   71.1095   -2.8524 P.3     1  UNL1        0.2189
      2 O          21.6793   69.5670   -2.9139 O.3     1  UNL1       -0.4371
      3 O          23.3834   71.2866   -3.6276 O.2     1  UNL1       -0.5170
      4 O          20.9780   72.0369   -3.4794 O.3     1  UNL1       -0.3112
      5 C          19.9287   72.6069   -2.6948 C.3     1  UNL1        0.1811
      6 C          17.8125   71.4294   -5.3541 C.3     1  UNL1        0.2383
      7 C          17.9928   70.2009   -4.4265 C.3     1  UNL1        0.1895
      8 O          16.8378   69.3604   -4.4630 O.3     1  UNL1       -0.3779
      9 C          18.1500   70.8636   -3.0360 C.3     1  UNL1        0.1713
     10 C          18.5798   72.3085   -3.3539 C.3     1  UNL1        0.1764
     11 O          18.6991   72.4151   -4.7814 O.3     1  UNL1       -0.3308
     12 O          16.9052   70.8542   -2.3352 O.3     1  UNL1       -0.3794
     13 H          16.9026   68.5778   -3.8991 H       1  UNL1        0.2106
     14 H          16.5579   69.9692   -2.1606 H       1  UNL1        0.2105
     15 N          18.2168   71.1052   -6.7239 N.ar    1  UNL1       -0.2551
     16 C          17.2914   70.7085   -7.6157 C.ar    1  UNL1        0.3323
     17 N          17.6346   70.4040   -8.8813 N.ar    1  UNL1       -0.2743
     18 C          18.9208   70.4949   -9.2763 C.ar    1  UNL1        0.2626
     19 C          19.9051   70.9121   -8.3483 C.ar    1  UNL1        0.0795
     20 C          19.5321   71.2152   -7.0871 C.ar    1  UNL1        0.0869
     21 O          16.1279   70.6223   -7.2735 O.2     1  UNL1       -0.2464
     22 O          19.2327   70.2200  -10.4216 O.2     1  UNL1       -0.2670
     23 H          16.9550   70.1185   -9.5111 H       1  UNL1        0.1734
     24 O          22.3909   71.5333   -1.3199 O.3     1  UNL1       -0.2703
     25 P          22.5196   70.7135    0.0600 P.3     1  UNL1        0.2208
     26 O          21.2047   69.8076    0.2702 O.3     1  UNL1       -0.4371
     27 O          23.7145   69.8429    0.0074 O.2     1  UNL1       -0.5170
     28 O          22.6616   71.7468    1.2868 O.3     1  UNL1       -0.2865
     29 C          21.6931   72.7588    1.5682 C.3     1  UNL1        0.2611
     30 C          22.2523   74.1266    1.1692 C.3     1  UNL1        0.1582
     31 C          23.4960   74.4257    2.0120 C.3     1  UNL1        0.1625
     32 C          23.1217   74.3619    3.4953 C.3     1  UNL1        0.1686
     33 C          22.5289   72.9846    3.8047 C.3     1  UNL1        0.1760
     34 O          23.9822   75.7327    1.6979 O.3     1  UNL1       -0.3801
     35 O          22.1573   75.3743    3.7886 O.3     1  UNL1       -0.3794
     36 O          21.3948   72.7566    2.9658 O.3     1  UNL1       -0.3263
     37 H          24.7709   75.9886    2.1956 H       1  UNL1        0.2105
     38 H          21.8732   75.3919    4.7133 H       1  UNL1        0.2105
     39 C          22.3055   75.1624   -1.0358 C.2     1  UNL1        0.2231
     40 C          22.6779   75.1483   -2.4951 C.3     1  UNL1        0.0946
     41 N          22.6147   74.1119   -0.2503 N.am    1  UNL1       -0.2994
     42 O          21.7267   76.1200   -0.5665 O.2     1  UNL1       -0.2751
     43 H          23.0765   73.3457   -0.6253 H       1  UNL1        0.1496
     44 C          22.0973   72.9332    5.2715 C.3     1  UNL1        0.1693
     45 O          20.7077   73.2514    5.3713 O.3     1  UNL1       -0.3794
     46 H          20.3645   73.2381    6.2752 H       1  UNL1        0.2105
@<TRIPOS>BOND
     1    29    30    1
     2    30    41    1
     3    30    31    1
     4    31    34    1
     5    31    32    1
     6    32    35    1
     7    32    33    1
     8    33    36    1
     9    33    44    1
    10    39    40    1
    11    39    42    2
    12    39    41   am
    13    41    43    1
    14    29    28    1
    15    34    37    1
    16    35    38    1
    17    29    36    1
    18    44    45    1
    19    45    46    1
    20    15     6    1
    21    15    16   ar
    22    16    21    2
    23    16    17   ar
    24    17    23    1
    25    17    18   ar
    26    18    19   ar
    27    19    20   ar
    28    15    20   ar
    29    18    22    2
    30     6     7    1
    31     6    11    1
    32     7     9    1
    33     7     8    1
    34     8    13    1
    35     9    10    1
    36     9    12    1
    37    10     5    1
    38    10    11    1
    39    12    14    1
    40     5     4    1
    41     4     1    1
    42     1     2    1
    43     1    24    1
    44     1     3    2
    45    24    25    1
    46    28    25    1
    47    25    26    1
    48    25    27    2
@<TRIPOS>MOLECULE
UD2
 46 48 0 0 0
SMALL
GASTEIGER

@<TRIPOS>ATOM
      1 P          22.5325   73.2772   -3.5775 P.3     1  UNL1        0.2189
      2 O          23.8428   72.7179   -4.3269 O.3     1  UNL1       -0.4371
      3 O          22.1202   74.5578   -4.1932 O.2     1  UNL1       -0.5170
      4 O          21.3375   72.2063   -3.7150 O.3     1  UNL1       -0.3112
      5 C          20.3645   71.9918   -2.6910 C.3     1  UNL1        0.1811
      6 C          18.0374   71.2892   -5.3420 C.3     1  UNL1        0.2383
      7 C          18.0730   69.9886   -4.4998 C.3     1  UNL1        0.1895
      8 O          16.8136   69.3152   -4.5476 O.3     1  UNL1       -0.3779
      9 C          18.3561   70.5300   -3.0770 C.3     1  UNL1        0.1713
     10 C          18.9704   71.9220   -3.3192 C.3     1  UNL1        0.1764
     11 O          19.0651   72.1064   -4.7407 O.3     1  UNL1       -0.3308
     12 O          17.1407   70.6414   -2.3346 O.3     1  UNL1       -0.3794
     13 H          16.7861   68.4952   -4.0363 H       1  UNL1        0.2106
     14 H          16.6807   69.8014   -2.2034 H       1  UNL1        0.2105
     15 N          18.3571   71.0055   -6.7428 N.ar    1  UNL1       -0.2551
     16 C          17.3644   70.7590   -7.6161 C.ar    1  UNL1        0.3323
     17 N          17.6291   70.4951   -8.9094 N.ar    1  UNL1       -0.2743
     18 C          18.9031   70.4759   -9.3512 C.ar    1  UNL1        0.2626
     19 C          19.9578   70.7346   -8.4430 C.ar    1  UNL1        0.0795
     20 C          19.6631   71.0004   -7.1530 C.ar    1  UNL1        0.0869
     21 O          16.2110   70.7732   -7.2318 O.2     1  UNL1       -0.2464
     22 O          19.1440   70.2376  -10.5216 O.2     1  UNL1       -0.2670
     23 H          16.9016   70.3183   -9.5255 H       1  UNL1        0.1734
     24 O          22.8644   73.5127   -2.0194 O.3     1  UNL1       -0.2703
     25 P          23.2862   74.7998   -1.1484 P.3     1  UNL1        0.2208
     26 O          24.8856   74.9816   -1.2003 O.3     1  UNL1       -0.4371
     27 O          22.6349   76.0064   -1.7035 O.2     1  UNL1       -0.5170
     28 O          22.8187   74.5912    0.3782 O.3     1  UNL1       -0.2865
     29 C          21.5454   74.0504    0.7354 C.3     1  UNL1        0.2611
     30 C          21.1996   74.4608    2.1688 C.3     1  UNL1        0.1582
     31 C          22.2405   73.8702    3.1250 C.3     1  UNL1        0.1625
     32 C          22.2752   72.3496    2.9488 C.3     1  UNL1        0.1686
     33 C          22.5796   72.0206    1.4849 C.3     1  UNL1        0.1760
     34 O          21.8845   74.1869    4.4727 O.3     1  UNL1       -0.3801
     35 O          21.0074   71.7980    3.3092 O.3     1  UNL1       -0.3794
     36 O          21.5921   72.6248    0.6473 O.3     1  UNL1       -0.3263
     37 H          22.5021   73.8439    5.1331 H       1  UNL1        0.2105
     38 H          20.9569   70.8359    3.2210 H       1  UNL1        0.2105
     39 C          20.0833   76.5814    2.6098 C.2     1  UNL1        0.2231
     40 C          20.0932   78.0835    2.7199 C.3     1  UNL1        0.0946
     41 N          21.2100   75.9219    2.2755 N.am    1  UNL1       -0.2994
     42 O          19.0604   75.9641    2.8220 O.2     1  UNL1       -0.2751
     43 H          22.0277   76.4151    2.1048 H       1  UNL1        0.1496
     44 C          22.5570   70.5036    1.2881 C.3     1  UNL1        0.1693
     45 O          21.3606   70.1294    0.6018 O.3     1  UNL1       -0.3794
     46 H          21.2789   69.1792    0.4423 H       1  UNL1        0.2105
@<TRIPOS>BOND
     1    29    30    1
     2    30    41    1
     3    30    31    1
     4    31    34    1
     5    31    32    1
     6    32    35    1
     7    32    33    1
     8    33    36    1
     9    33    44    1
    10    39    40    1
    11    39    42    2
    12    39    41   am
    13    41    43    1
    14    29    28    1
    15    34    37    1
    16    35    38    1
    17    29    36    1
    18    44    45    1
    19    45    46    1
    20    15     6    1
    21    15    16   ar
    22    16    21    2
    23    16    17   ar
    24    17    23    1
    25    17    18   ar
    26    18    19   ar
    27    19    20   ar
    28    15    20   ar
    29    18    22    2
    30     6     7    1
    31     6    11    1
    32     7     9    1
    33     7     8    1
    34     8    13    1
    35     9    10    1
    36     9    12    1
    37    10     5    1
    38    10    11    1
    39    12    14    1
    40     5     4    1
    41     4     1    1
    42     1     2    1
    43     1    24    1
    44     1     3    2
    45    24    25    1
    46    28    25    1
    47    25    26    1
    48    25    27    2
@<TRIPOS>MOLECULE
UD2
 46 48 0 0 0
SMALL
GASTEIGER

@<TRIPOS>ATOM
      1 P          22.8691   71.9757   -3.2111 P.3     1  UNL1        0.2189
      2 O          23.4704   70.4826   -3.2366 O.3     1  UNL1       -0.4371
      3 O          23.5661   72.8061   -4.2178 O.2     1  UNL1       -0.5170
      4 O          21.2959   71.9263   -3.5522 O.3     1  UNL1       -0.3112
      5 C          20.2806   72.0053   -2.5501 C.3     1  UNL1        0.1811
      6 C          18.0030   71.3802   -5.2627 C.3     1  UNL1        0.2383
      7 C          17.9617   70.0848   -4.4128 C.3     1  UNL1        0.1895
      8 O          16.6778   69.4628   -4.4931 O.3     1  UNL1       -0.3779
      9 C          18.2261   70.6236   -2.9855 C.3     1  UNL1        0.1713
     10 C          18.9032   71.9879   -3.2176 C.3     1  UNL1        0.1764
     11 O          19.0456   72.1590   -4.6367 O.3     1  UNL1       -0.3308
     12 O          16.9957   70.7892   -2.2788 O.3     1  UNL1       -0.3794
     13 H          16.6023   68.6479   -3.9783 H       1  UNL1        0.2106
     14 H          16.4983   69.9694   -2.1562 H       1  UNL1        0.2105
     15 N          18.3505   71.0745   -6.6523 N.ar    1  UNL1       -0.2551
     16 C          17.3771   70.7886   -7.5352 C.ar    1  UNL1        0.3323
     17 N          17.6675   70.5038   -8.8185 N.ar    1  UNL1       -0.2743
     18 C          18.9483   70.5030   -9.2404 C.ar    1  UNL1        0.2626
     19 C          19.9830   70.8032   -8.3220 C.ar    1  UNL1        0.0795
     20 C          19.6626   71.0892   -7.0425 C.ar    1  UNL1        0.0869
     21 O          16.2177   70.7859   -7.1688 O.2     1  UNL1       -0.2464
     22 O          19.2125   70.2458  -10.4017 O.2     1  UNL1       -0.2670
     23 H          16.9536   70.2986   -9.4417 H       1  UNL1        0.1734
     24 O          23.0805   72.6148   -1.7482 O.3     1  UNL1       -0.2703
     25 P          23.1151   74.1215   -1.1810 P.3     1  UNL1        0.2208
     26 O          24.5656   74.7649   -1.4562 O.3     1  UNL1       -0.4371
     27 O          22.0803   74.9295   -1.8627 O.2     1  UNL1       -0.5170
     28 O          22.8266   74.1052    0.4031 O.3     1  UNL1       -0.2865
     29 C          22.7386   75.2940    1.1906 C.3     1  UNL1        0.2611
     30 C          23.8605   75.3018    2.2318 C.3     1  UNL1        0.1582
     31 C          23.6806   74.1064    3.1725 C.3     1  UNL1        0.1625
     32 C          22.2924   74.1800    3.8144 C.3     1  UNL1        0.1686
     33 C          21.2307   74.2154    2.7119 C.3     1  UNL1        0.1760
     34 O          24.6812   74.1470    4.1925 O.3     1  UNL1       -0.3801
     35 O          22.1959   75.3632    4.6093 O.3     1  UNL1       -0.3794
     36 O          21.4737   75.3325    1.8546 O.3     1  UNL1       -0.3263
     37 H          24.6276   73.4172    4.8248 H       1  UNL1        0.2105
     38 H          21.3402   75.4754    5.0466 H       1  UNL1        0.2105
     39 C          26.0986   76.1432    1.7618 C.2     1  UNL1        0.2231
     40 C          27.4311   76.0412    1.0672 C.3     1  UNL1        0.0946
     41 N          25.1563   75.2020    1.5555 N.am    1  UNL1       -0.2994
     42 O          25.8727   77.0731    2.5078 O.2     1  UNL1       -0.2751
     43 H          25.3361   74.4589    0.9584 H       1  UNL1        0.1496
     44 C          19.8439   74.3492    3.3438 C.3     1  UNL1        0.1693
     45 O          19.0915   75.3382    2.6382 O.3     1  UNL1       -0.3794
     46 H          18.1995   75.4763    2.9851 H       1  UNL1        0.2105
@<TRIPOS>BOND
     1    29    30    1
     2    30    41    1
     3    30    31    1
     4    31    34    1
     5    31    32    1
     6    32    35    1
     7    32    33    1
     8    33    36    1
     9    33    44    1
    10    39    40    1
    11    39    42    2
    12    39    41   am
    13    41    43    1
    14    29    28    1
    15    34    37    1
    16    35    38    1
    17    29    36    1
    18    44    45    1
    19    45    46    1
    20    15     6    1
    21    15    16   ar
    22    16    21    2
    23    16    17   ar
    24    17    23    1
    25    17    18   ar
    26    18    19   ar
    27    19    20   ar
    28    15    20   ar
    29    18    22    2
    30     6     7    1
    31     6    11    1
    32     7     9    1
    33     7     8    1
    34     8    13    1
    35     9    10    1
    36     9    12    1
    37    10     5    1
    38    10    11    1
    39    12    14    1
    40     5     4    1
    41     4     1    1
    42     1     2    1
    43     1    24    1
    44     1     3    2
    45    24    25    1
    46    28    25    1
    47    25    26    1
    48    25    27    2
@<TRIPOS>MOLECULE
UD2
 46 48 0 0 0
SMALL
GASTEIGER

@<TRIPOS>ATOM
      1 P          20.3579   74.5998   -3.1184 P.3     1  UNL1        0.2189
      2 O          18.7890   74.2448   -3.0542 O.3     1  UNL1       -0.4371
      3 O          20.5368   76.0655   -3.0258 O.2     1  UNL1       -0.5170
      4 O          21.1198   73.8874   -1.8913 O.3     1  UNL1       -0.3112
      5 C          22.3635   74.3591   -1.3697 C.3     1  UNL1        0.1811
      6 C          23.0308   72.4966    1.6340 C.3     1  UNL1        0.2383
      7 C          21.8594   71.7396    0.9583 C.3     1  UNL1        0.1895
      8 O          21.9157   70.3430    1.2553 O.3     1  UNL1       -0.3779
      9 C          22.1302   71.9961   -0.5445 C.3     1  UNL1        0.1713
     10 C          23.0301   73.2465   -0.5569 C.3     1  UNL1        0.1764
     11 O          23.1948   73.6686    0.8063 O.3     1  UNL1       -0.3308
     12 O          22.8116   70.8831   -1.1257 O.3     1  UNL1       -0.3794
     13 H          21.2031   69.8265    0.8553 H       1  UNL1        0.2106
     14 H          22.3142   70.0549   -1.0916 H       1  UNL1        0.2105
     15 N          22.6774   72.8771    3.0035 N.ar    1  UNL1       -0.2551
     16 C          21.4217   72.6854    3.4454 C.ar    1  UNL1        0.3323
     17 N          21.0689   73.0259    4.6991 N.ar    1  UNL1       -0.2743
     18 C          21.9771   73.5665    5.5366 C.ar    1  UNL1        0.2626
     19 C          23.3028   73.7730    5.0850 C.ar    1  UNL1        0.0795
     20 C          23.6298   73.4184    3.8245 C.ar    1  UNL1        0.0869
     21 O          20.5925   72.1987    2.7012 O.2     1  UNL1       -0.2464
     22 O          21.6592   73.8747    6.6717 O.2     1  UNL1       -0.2670
     23 H          20.1589   72.8819    5.0012 H       1  UNL1        0.1734
     24 O          20.9716   74.0707   -4.5100 O.3     1  UNL1       -0.2703
     25 P          21.4083   72.6217   -5.0601 P.3     1  UNL1        0.2208
     26 O          22.6318   72.7871   -6.0942 O.3     1  UNL1       -0.4371
     27 O          21.8327   71.7708   -3.9268 O.2     1  UNL1       -0.5170
     28 O          20.1604   71.9341   -5.8101 O.3     1  UNL1       -0.2865
     29 C          19.0349   72.6738   -6.2868 C.3     1  UNL1        0.2611
     30 C          17.7439   71.9595   -5.8795 C.3     1  UNL1        0.1582
     31 C          17.7053   70.5775   -6.5391 C.3     1  UNL1        0.1625
     32 C          17.8223   70.7445   -8.0565 C.3     1  UNL1        0.1686
     33 C          19.1106   71.5058   -8.3800 C.3     1  UNL1        0.1760
     34 O          16.4694   69.9325   -6.2234 O.3     1  UNL1       -0.3801
     35 O          16.6978   71.4786   -8.5444 O.3     1  UNL1       -0.3794
     36 O          19.0964   72.7687   -7.7114 O.3     1  UNL1       -0.3263
     37 H          16.3770   69.0504   -6.6087 H       1  UNL1        0.2105
     38 H          16.7065   71.6229   -9.5010 H       1  UNL1        0.2105
     39 C          16.5368   71.9144   -3.7632 C.2     1  UNL1        0.2231
     40 C          16.4983   71.7585   -2.2656 C.3     1  UNL1        0.0946
     41 N          17.7072   71.8080   -4.4227 N.am    1  UNL1       -0.2994
     42 O          15.5138   72.1359   -4.3767 O.2     1  UNL1       -0.2751
     43 H          18.5256   71.6319   -3.9325 H       1  UNL1        0.1496
     44 C          19.2052   71.7291   -9.8905 C.3     1  UNL1        0.1693
     45 O          18.3734   72.8298  -10.2631 O.3     1  UNL1       -0.3794
     46 H          18.3840   73.0290  -11.2093 H       1  UNL1        0.2105
@<TRIPOS>BOND
     1    29    30    1
     2    30    41    1
     3    30    31    1
     4    31    34    1
     5    31    32    1
     6    32    35    1
     7    32    33    1
     8    33    36    1
     9    33    44    1
    10    39    40    1
    11    39    42    2
    12    39    41   am
    13    41    43    1
    14    29    28    1
    15    34    37    1
    16    35    38    1
    17    29    36    1
    18    44    45    1
    19    45    46    1
    20    15     6    1
    21    15    16   ar
    22    16    21    2
    23    16    17   ar
    24    17    23    1
    25    17    18   ar
    26    18    19   ar
    27    19    20   ar
    28    15    20   ar
    29    18    22    2
    30     6     7    1
    31     6    11    1
    32     7     9    1
    33     7     8    1
    34     8    13    1
    35     9    10    1
    36     9    12    1
    37    10     5    1
    38    10    11    1
    39    12    14    1
    40     5     4    1
    41     4     1    1
    42     1     2    1
    43     1    24    1
    44     1     3    2
    45    24    25    1
    46    28    25    1
    47    25    26    1
    48    25    27    2
@<TRIPOS>MOLECULE
UD2
 46 48 0 0 0
SMALL
GASTEIGER

@<TRIPOS>ATOM
      1 P          22.5014   71.6063   -2.8285 P.3     1  UNL1        0.2189
      2 O          22.5447   71.9983   -1.2678 O.3     1  UNL1       -0.4371
      3 O          22.8471   70.1767   -2.9885 O.2     1  UNL1       -0.5170
      4 O          21.0214   71.8687   -3.4067 O.3     1  UNL1       -0.3112
      5 C          20.0126   72.5654   -2.6730 C.3     1  UNL1        0.1811
      6 C          17.8449   71.4988   -5.3376 C.3     1  UNL1        0.2383
      7 C          17.9565   70.2637   -4.4079 C.3     1  UNL1        0.1895
      8 O          16.7584   69.4860   -4.4470 O.3     1  UNL1       -0.3779
      9 C          18.1445   70.9190   -3.0177 C.3     1  UNL1        0.1713
     10 C          18.6518   72.3385   -3.3360 C.3     1  UNL1        0.1764
     11 O          18.7810   72.4366   -4.7633 O.3     1  UNL1       -0.3308
     12 O          16.8987   70.9771   -2.3209 O.3     1  UNL1       -0.3794
     13 H          16.7796   68.7018   -3.8819 H       1  UNL1        0.2106
     14 H          16.5041   70.1120   -2.1463 H       1  UNL1        0.2105
     15 N          18.2356   71.1515   -6.7057 N.ar    1  UNL1       -0.2551
     16 C          17.2899   70.8426   -7.6107 C.ar    1  UNL1        0.3323
     17 N          17.6203   70.5194   -8.8751 N.ar    1  UNL1       -0.2743
     18 C          18.9139   70.5026   -9.2554 C.ar    1  UNL1        0.2626
     19 C          19.9197   70.8267   -8.3134 C.ar    1  UNL1        0.0795
     20 C          19.5596   71.1510   -7.0538 C.ar    1  UNL1        0.0869
     21 O          16.1194   70.8539   -7.2818 O.2     1  UNL1       -0.2464
     22 O          19.2142   70.2106  -10.3996 O.2     1  UNL1       -0.2670
     23 H          16.9259   70.2981   -9.5147 H       1  UNL1        0.1734
     24 O          23.5610   72.5089   -3.6384 O.3     1  UNL1       -0.2703
     25 P          23.6059   74.0578   -4.0762 P.3     1  UNL1        0.2208
     26 O          22.7008   74.9268   -3.0665 O.3     1  UNL1       -0.4371
     27 O          25.0022   74.5439   -4.0287 O.2     1  UNL1       -0.5170
     28 O          23.0353   74.2087   -5.5743 O.3     1  UNL1       -0.2865
     29 C          22.7508   75.4733   -6.1752 C.3     1  UNL1        0.2611
     30 C          21.2514   75.5761   -6.4647 C.3     1  UNL1        0.1582
     31 C          20.8576   74.4861   -7.4663 C.3     1  UNL1        0.1625
     32 C          21.7050   74.6407   -8.7321 C.3     1  UNL1        0.1686
     33 C          23.1874   74.5739   -8.3551 C.3     1  UNL1        0.1760
     34 O          19.4738   74.6206   -7.7985 O.3     1  UNL1       -0.3801
     35 O          21.4236   75.9006   -9.3443 O.3     1  UNL1       -0.3794
     36 O          23.4803   75.5939   -7.3982 O.3     1  UNL1       -0.3263
     37 H          19.1552   73.9606   -8.4294 H       1  UNL1        0.2105
     38 H          21.9272   76.0666  -10.1535 H       1  UNL1        0.2105
     39 C          19.4434   76.1849   -4.9486 C.2     1  UNL1        0.2231
     40 C          18.6696   75.9971   -3.6701 C.3     1  UNL1        0.0946
     41 N          20.4993   75.3929   -5.2207 N.am    1  UNL1       -0.2994
     42 O          19.1165   77.0498   -5.7343 O.2     1  UNL1       -0.2751
     43 H          20.7616   74.7020   -4.5924 H       1  UNL1        0.1496
     44 C          24.0416   74.7873   -9.6062 C.3     1  UNL1        0.1693
     45 O          24.2612   73.5324  -10.2537 O.3     1  UNL1       -0.3794
     46 H          24.7968   73.5919  -11.0566 H       1  UNL1        0.2105
@<TRIPOS>BOND
     1    29    30    1
     2    30    41    1
     3    30    31    1
     4    31    34    1
     5    31    32    1
     6    32    35    1
     7    32    33    1
     8    33    36    1
     9    33    44    1
    10    39    40    1
    11    39    42    2
    12    39    41   am
    13    41    43    1
    14    29    28    1
    15    34    37    1
    16    35    38    1
    17    29    36    1
    18    44    45    1
    19    45    46    1
    20    15     6    1
    21    15    16   ar
    22    16    21    2
    23    16    17   ar
    24    17    23    1
    25    17    18   ar
    26    18    19   ar
    27    19    20   ar
    28    15    20   ar
    29    18    22    2
    30     6     7    1
    31     6    11    1
    32     7     9    1
    33     7     8    1
    34     8    13    1
    35     9    10    1
    36     9    12    1
    37    10     5    1
    38    10    11    1
    39    12    14    1
    40     5     4    1
    41     4     1    1
    42     1     2    1
    43     1    24    1
    44     1     3    2
    45    24    25    1
    46    28    25    1
    47    25    26    1
    48    25    27    2
@<TRIPOS>MOLECULE
UD2
 46 48 0 0 0
SMALL
GASTEIGER

@<TRIPOS>ATOM
      1 P          22.1202   70.4335   -0.1206 P.3     1  UNL1        0.2189
      2 O          21.3504   70.8064    1.2431 O.3     1  UNL1       -0.4371
      3 O          23.0828   69.3404    0.1387 O.2     1  UNL1       -0.5170
      4 O          21.0513   69.9563   -1.2268 O.3     1  UNL1       -0.3112
      5 C          21.1169   70.3600   -2.5958 C.3     1  UNL1        0.1811
      6 C          18.5164   70.8960   -5.0221 C.3     1  UNL1        0.2383
      7 C          18.1893   69.5153   -4.3987 C.3     1  UNL1        0.1895
      8 O          16.7803   69.2777   -4.3963 O.3     1  UNL1       -0.3779
      9 C          18.7250   69.6750   -2.9548 C.3     1  UNL1        0.1713
     10 C          19.7355   70.8337   -3.0542 C.3     1  UNL1        0.1764
     11 O          19.7895   71.2374   -4.4317 O.3     1  UNL1       -0.3308
     12 O          17.6617   70.0132   -2.0628 O.3     1  UNL1       -0.3794
     13 H          16.5254   68.4259   -4.0166 H       1  UNL1        0.2106
     14 H          16.9665   69.3438   -2.0066 H       1  UNL1        0.2105
     15 N          18.6344   70.7898   -6.4780 N.ar    1  UNL1       -0.2551
     16 C          17.5254   70.7993   -7.2389 C.ar    1  UNL1        0.3323
     17 N          17.6040   70.7030   -8.5793 N.ar    1  UNL1       -0.2743
     18 C          18.8053   70.5966   -9.1828 C.ar    1  UNL1        0.2626
     19 C          19.9809   70.5863   -8.3942 C.ar    1  UNL1        0.0795
     20 C          19.8727   70.6887   -7.0528 C.ar    1  UNL1        0.0869
     21 O          16.4356   70.8949   -6.7083 O.2     1  UNL1       -0.2464
     22 O          18.8779   70.5098  -10.3960 O.2     1  UNL1       -0.2670
     23 H          16.7945   70.7102   -9.1129 H       1  UNL1        0.1734
     24 O          22.9105   71.7278   -0.6623 O.3     1  UNL1       -0.2703
     25 P          22.6131   73.3102   -0.6384 P.3     1  UNL1        0.2208
     26 O          24.0034   74.1184   -0.7266 O.3     1  UNL1       -0.4371
     27 O          21.7602   73.6697   -1.7924 O.2     1  UNL1       -0.5170
     28 O          21.8552   73.6931    0.7297 O.3     1  UNL1       -0.2865
     29 C          21.7612   75.0321    1.2190 C.3     1  UNL1        0.2611
     30 C          21.8004   75.0211    2.7491 C.3     1  UNL1        0.1582
     31 C          20.5886   74.2469    3.2768 C.3     1  UNL1        0.1625
     32 C          19.3095   74.8898    2.7336 C.3     1  UNL1        0.1686
     33 C          19.3663   74.9058    1.2037 C.3     1  UNL1        0.1760
     34 O          20.5773   74.2942    4.7054 O.3     1  UNL1       -0.3801
     35 O          19.2030   76.2282    3.2221 O.3     1  UNL1       -0.3794
     36 O          20.5324   75.6144    0.7793 O.3     1  UNL1       -0.3263
     37 H          19.8356   73.8223    5.1083 H       1  UNL1        0.2105
     38 H          18.4142   76.6976    2.9164 H       1  UNL1        0.2105
     39 C          23.7298   74.8902    4.2317 C.2     1  UNL1        0.2231
     40 C          24.9963   74.2217    4.6983 C.3     1  UNL1        0.0946
     41 N          23.0324   74.3705    3.2023 N.am    1  UNL1       -0.2994
     42 O          23.3368   75.8973    4.7825 O.2     1  UNL1       -0.2751
     43 H          23.3468   73.5658    2.7609 H       1  UNL1        0.1496
     44 C          18.1188   75.6005    0.6546 C.3     1  UNL1        0.1693
     45 O          16.9639   75.1276    1.3508 O.3     1  UNL1       -0.3794
     46 H          16.1344   75.5262    1.0540 H       1  UNL1        0.2105
@<TRIPOS>BOND
     1    29    30    1
     2    30    41    1
     3    30    31    1
     4    31    34    1
     5    31    32    1
     6    32    35    1
     7    32    33    1
     8    33    36    1
     9    33    44    1
    10    39    40    1
    11    39    42    2
    12    39    41   am
    13    41    43    1
    14    29    28    1
    15    34    37    1
    16    35    38    1
    17    29    36    1
    18    44    45    1
    19    45    46    1
    20    15     6    1
    21    15    16   ar
    22    16    21    2
    23    16    17   ar
    24    17    23    1
    25    17    18   ar
    26    18    19   ar
    27    19    20   ar
    28    15    20   ar
    29    18    22    2
    30     6     7    1
    31     6    11    1
    32     7     9    1
    33     7     8    1
    34     8    13    1
    35     9    10    1
    36     9    12    1
    37    10     5    1
    38    10    11    1
    39    12    14    1
    40     5     4    1
    41     4     1    1
    42     1     2    1
    43     1    24    1
    44     1     3    2
    45    24    25    1
    46    28    25    1
    47    25    26    1
    48    25    27    2
@<TRIPOS>MOLECULE
UD2
 46 48 0 0 0
SMALL
GASTEIGER

@<TRIPOS>ATOM
      1 P          21.8889   70.7137   -0.5529 P.3     1  UNL1        0.2189
      2 O          21.6035   69.4594    0.4150 O.3     1  UNL1       -0.4371
      3 O          22.9561   70.3621   -1.5153 O.2     1  UNL1       -0.5170
      4 O          20.5441   71.0886   -1.3559 O.3     1  UNL1       -0.3112
      5 C          20.5524   71.7877   -2.6020 C.3     1  UNL1        0.1811
      6 C          18.1333   71.2401   -5.2067 C.3     1  UNL1        0.2383
      7 C          18.1368   69.9202   -4.3944 C.3     1  UNL1        0.1895
      8 O          16.8502   69.2993   -4.4245 O.3     1  UNL1       -0.3779
      9 C          18.4771   70.4170   -2.9679 C.3     1  UNL1        0.1713
     10 C          19.1414   71.7883   -3.1953 C.3     1  UNL1        0.1764
     11 O          19.2081   72.0014   -4.6144 O.3     1  UNL1       -0.3308
     12 O          17.2862   70.5601   -2.1921 O.3     1  UNL1       -0.3794
     13 H          16.8019   68.4695   -3.9307 H       1  UNL1        0.2106
     14 H          16.7957   69.7365   -2.0674 H       1  UNL1        0.2105
     15 N          18.4061   70.9760   -6.6212 N.ar    1  UNL1       -0.2551
     16 C          17.3835   70.7685   -7.4697 C.ar    1  UNL1        0.3323
     17 N          17.6049   70.5234   -8.7747 N.ar    1  UNL1       -0.2743
     18 C          18.8649   70.4840   -9.2537 C.ar    1  UNL1        0.2626
     19 C          19.9508   70.7016   -8.3719 C.ar    1  UNL1        0.0795
     20 C          19.6994   70.9494   -7.0692 C.ar    1  UNL1        0.0869
     21 O          16.2421   70.8014   -7.0518 O.2     1  UNL1       -0.2464
     22 O          19.0666   70.2626  -10.4347 O.2     1  UNL1       -0.2670
     23 H          16.8561   70.3748   -9.3726 H       1  UNL1        0.1734
     24 O          22.3562   71.9773    0.3293 O.3     1  UNL1       -0.2703
     25 P          21.7233   72.7574    1.5878 P.3     1  UNL1        0.2208
     26 O          20.6911   73.8759    1.0614 O.3     1  UNL1       -0.4371
     27 O          21.0079   71.7962    2.4554 O.2     1  UNL1       -0.5170
     28 O          22.9006   73.4657    2.4274 O.3     1  UNL1       -0.2865
     29 C          22.8269   74.8178    2.8829 C.3     1  UNL1        0.2611
     30 C          24.2203   75.2927    3.3021 C.3     1  UNL1        0.1582
     31 C          24.7125   74.4342    4.4713 C.3     1  UNL1        0.1625
     32 C          23.7004   74.5222    5.6168 C.3     1  UNL1        0.1686
     33 C          22.3267   74.0768    5.1082 C.3     1  UNL1        0.1760
     34 O          25.9817   74.9178    4.9172 O.3     1  UNL1       -0.3801
     35 O          23.6233   75.8702    6.0837 O.3     1  UNL1       -0.3794
     36 O          21.9417   74.8954    4.0021 O.3     1  UNL1       -0.3263
     37 H          26.3542   74.4189    5.6572 H       1  UNL1        0.2105
     38 H          22.9987   76.0002    6.8109 H       1  UNL1        0.2105
     39 C          25.7675   76.2449    1.6781 C.2     1  UNL1        0.2231
     40 C          26.7171   76.1068    0.5172 C.3     1  UNL1        0.0946
     41 N          25.1436   75.1575    2.1726 N.am    1  UNL1       -0.2994
     42 O          25.5637   77.3357    2.1688 O.2     1  UNL1       -0.2751
     43 H          25.3055   74.2854    1.7800 H       1  UNL1        0.1496
     44 C          21.2970   74.2185    6.2308 C.3     1  UNL1        0.1693
     45 O          21.9490   74.0865    7.4956 O.3     1  UNL1       -0.3794
     46 H          21.3554   74.1657    8.2549 H       1  UNL1        0.2105
@<TRIPOS>BOND
     1    29    30    1
     2    30    41    1
     3    30    31    1
     4    31    34    1
     5    31    32    1
     6    32    35    1
     7    32    33    1
     8    33    36    1
     9    33    44    1
    10    39    40    1
    11    39    42    2
    12    39    41   am
    13    41    43    1
    14    29    28    1
    15    34    37    1
    16    35    38    1
    17    29    36    1
    18    44    45    1
    19    45    46    1
    20    15     6    1
    21    15    16   ar
    22    16    21    2
    23    16    17   ar
    24    17    23    1
    25    17    18   ar
    26    18    19   ar
    27    19    20   ar
    28    15    20   ar
    29    18    22    2
    30     6     7    1
    31     6    11    1
    32     7     9    1
    33     7     8    1
    34     8    13    1
    35     9    10    1
    36     9    12    1
    37    10     5    1
    38    10    11    1
    39    12    14    1
    40     5     4    1
    41     4     1    1
    42     1     2    1
    43     1    24    1
    44     1     3    2
    45    24    25    1
    46    28    25    1
    47    25    26    1
    48    25    27    2
@<TRIPOS>MOLECULE
UD2
 46 48 0 0 0
SMALL
GASTEIGER

@<TRIPOS>ATOM
      1 P          22.8394   72.1096   -3.2058 P.3     1  UNL1        0.2189
      2 O          23.4969   70.6407   -3.1691 O.3     1  UNL1       -0.4371
      3 O          23.5030   72.9218   -4.2493 O.2     1  UNL1       -0.5170
      4 O          21.2688   71.9862   -3.5397 O.3     1  UNL1       -0.3112
      5 C          20.2527   72.0667   -2.5384 C.3     1  UNL1        0.1811
      6 C          17.9849   71.3928   -5.2475 C.3     1  UNL1        0.2383
      7 C          17.9663   70.0999   -4.3929 C.3     1  UNL1        0.1895
      8 O          16.6932   69.4557   -4.4703 O.3     1  UNL1       -0.3779
      9 C          18.2221   70.6484   -2.9677 C.3     1  UNL1        0.1713
     10 C          18.8755   72.0232   -3.2051 C.3     1  UNL1        0.1764
     11 O          19.0143   72.1917   -4.6249 O.3     1  UNL1       -0.3308
     12 O          16.9894   70.7952   -2.2610 O.3     1  UNL1       -0.3794
     13 H          16.6320   68.6415   -3.9526 H       1  UNL1        0.2106
     14 H          16.5062   69.9675   -2.1352 H       1  UNL1        0.2105
     15 N          18.3369   71.0882   -6.6362 N.ar    1  UNL1       -0.2551
     16 C          17.3649   70.8260   -7.5279 C.ar    1  UNL1        0.3323
     17 N          17.6594   70.5427   -8.8106 N.ar    1  UNL1       -0.2743
     18 C          18.9431   70.5195   -9.2230 C.ar    1  UNL1        0.2626
     19 C          19.9764   70.7946   -8.2952 C.ar    1  UNL1        0.0795
     20 C          19.6520   71.0796   -7.0165 C.ar    1  UNL1        0.0869
     21 O          16.2029   70.8436   -7.1701 O.2     1  UNL1       -0.2464
     22 O          19.2111   70.2637  -10.3837 O.2     1  UNL1       -0.2670
     23 H          16.9464   70.3548   -9.4402 H       1  UNL1        0.1734
     24 O          23.0285   72.8185   -1.7723 O.3     1  UNL1       -0.2703
     25 P          23.0254   74.3495   -1.2733 P.3     1  UNL1        0.2208
     26 O          24.4921   74.9828   -1.4769 O.3     1  UNL1       -0.4371
     27 O          22.0409   75.1233   -2.0609 O.2     1  UNL1       -0.5170
     28 O          22.6283   74.4047    0.2862 O.3     1  UNL1       -0.2865
     29 C          23.3729   73.7323    1.3034 C.3     1  UNL1        0.2611
     30 C          22.5070   72.6379    1.9320 C.3     1  UNL1        0.1582
     31 C          21.2877   73.2831    2.5979 C.3     1  UNL1        0.1625
     32 C          21.7658   74.3090    3.6291 C.3     1  UNL1        0.1686
     33 C          22.6605   75.3393    2.9348 C.3     1  UNL1        0.1760
     34 O          20.5117   72.2757    3.2507 O.3     1  UNL1       -0.3801
     35 O          22.5073   73.6456    4.6545 O.3     1  UNL1       -0.3794
     36 O          23.7581   74.6706    2.3101 O.3     1  UNL1       -0.3263
     37 H          19.7216   72.6141    3.6940 H       1  UNL1        0.2105
     38 H          22.8424   74.2364    5.3434 H       1  UNL1        0.2105
     39 C          22.4916   70.4308    0.8994 C.2     1  UNL1        0.2231
     40 C          22.0340   69.4742   -0.1702 C.3     1  UNL1        0.0946
     41 N          22.0617   71.7080    0.8911 N.am    1  UNL1       -0.2994
     42 O          23.2478   70.0519    1.7693 O.2     1  UNL1       -0.2751
     43 H          21.4579   72.0117    0.1952 H       1  UNL1        0.1496
     44 C          23.1907   76.3336    3.9695 C.3     1  UNL1        0.1693
     45 O          24.2881   75.7492    4.6742 O.3     1  UNL1       -0.3794
     46 H          24.6750   76.3250    5.3478 H       1  UNL1        0.2105
@<TRIPOS>BOND
     1    29    30    1
     2    30    41    1
     3    30    31    1
     4    31    34    1
     5    31    32    1
     6    32    35    1
     7    32    33    1
     8    33    36    1
     9    33    44    1
    10    39    40    1
    11    39    42    2
    12    39    41   am
    13    41    43    1
    14    29    28    1
    15    34    37    1
    16    35    38    1
    17    29    36    1
    18    44    45    1
    19    45    46    1
    20    15     6    1
    21    15    16   ar
    22    16    21    2
    23    16    17   ar
    24    17    23    1
    25    17    18   ar
    26    18    19   ar
    27    19    20   ar
    28    15    20   ar
    29    18    22    2
    30     6     7    1
    31     6    11    1
    32     7     9    1
    33     7     8    1
    34     8    13    1
    35     9    10    1
    36     9    12    1
    37    10     5    1
    38    10    11    1
    39    12    14    1
    40     5     4    1
    41     4     1    1
    42     1     2    1
    43     1    24    1
    44     1     3    2
    45    24    25    1
    46    28    25    1
    47    25    26    1
    48    25    27    2
@<TRIPOS>MOLECULE
UD2
 46 48 0 0 0
SMALL
GASTEIGER

@<TRIPOS>ATOM
      1 P          21.7486   70.5431   -0.3041 P.3     1  UNL1        0.2189
      2 O          21.9336   69.0768    0.3338 O.3     1  UNL1       -0.4371
      3 O          23.0511   71.0297   -0.8098 O.2     1  UNL1       -0.5170
      4 O          20.6943   70.4703   -1.5194 O.3     1  UNL1       -0.3112
      5 C          20.7329   71.3608   -2.6361 C.3     1  UNL1        0.1811
      6 C          18.2396   71.1445   -5.2194 C.3     1  UNL1        0.2383
      7 C          18.1192   69.8054   -4.4484 C.3     1  UNL1        0.1895
      8 O          16.7760   69.3188   -4.4781 O.3     1  UNL1       -0.3779
      9 C          18.5252   70.2190   -3.0127 C.3     1  UNL1        0.1713
     10 C          19.3222   71.5230   -3.2076 C.3     1  UNL1        0.1764
     11 O          19.3930   71.7739   -4.6202 O.3     1  UNL1       -0.3308
     12 O          17.3642   70.4564   -2.2148 O.3     1  UNL1       -0.3794
     13 H          16.6499   68.4826   -4.0096 H       1  UNL1        0.2106
     14 H          16.7944   69.6829   -2.1082 H       1  UNL1        0.2105
     15 N          18.4673   70.9001   -6.6454 N.ar    1  UNL1       -0.2551
     16 C          17.4170   70.7772   -7.4765 C.ar    1  UNL1        0.3323
     17 N          17.5968   70.5521   -8.7915 N.ar    1  UNL1       -0.2743
     18 C          18.8421   70.4476   -9.2982 C.ar    1  UNL1        0.2626
     19 C          19.9568   70.5759   -8.4350 C.ar    1  UNL1        0.0795
     20 C          19.7472   70.8055   -7.1216 C.ar    1  UNL1        0.0869
     21 O          16.2885   70.8694   -7.0335 O.2     1  UNL1       -0.2464
     22 O          19.0061   70.2443  -10.4882 O.2     1  UNL1       -0.2670
     23 H          16.8285   70.4649   -9.3765 H       1  UNL1        0.1734
     24 O          21.1986   71.5535    0.8228 O.3     1  UNL1       -0.2703
     25 P          21.8964   72.4021    2.0000 P.3     1  UNL1        0.2208
     26 O          22.8642   71.4389    2.8540 O.3     1  UNL1       -0.4371
     27 O          22.6911   73.5021    1.4111 O.2     1  UNL1       -0.5170
     28 O          20.7621   73.0154    2.9643 O.3     1  UNL1       -0.2865
     29 C          20.7374   74.3873    3.3626 C.3     1  UNL1        0.2611
     30 C          21.5605   74.5634    4.6409 C.3     1  UNL1        0.1582
     31 C          20.9235   73.7411    5.7654 C.3     1  UNL1        0.1625
     32 C          19.4689   74.1838    5.9460 C.3     1  UNL1        0.1686
     33 C          18.7263   74.0222    4.6169 C.3     1  UNL1        0.1760
     34 O          21.6431   73.9575    6.9814 O.3     1  UNL1       -0.3801
     35 O          19.4333   75.5537    6.3501 O.3     1  UNL1       -0.3794
     36 O          19.3876   74.7875    3.6075 O.3     1  UNL1       -0.3263
     37 H          21.2940   73.4657    7.7373 H       1  UNL1        0.2105
     38 H          18.5406   75.9023    6.4828 H       1  UNL1        0.2105
     39 C          23.9708   74.7795    4.9267 C.2     1  UNL1        0.2231
     40 C          25.3791   74.3011    4.6891 C.3     1  UNL1        0.0946
     41 N          22.9301   74.0975    4.4091 N.am    1  UNL1       -0.2994
     42 O          23.7726   75.7797    5.5845 O.2     1  UNL1       -0.2751
     43 H          23.0882   73.2984    3.8823 H       1  UNL1        0.1496
     44 C          17.2877   74.5186    4.7733 C.3     1  UNL1        0.1693
     45 O          17.2116   75.8913    4.3830 O.3     1  UNL1       -0.3794
     46 H          16.3263   76.2733    4.4567 H       1  UNL1        0.2105
@<TRIPOS>BOND
     1    29    30    1
     2    30    41    1
     3    30    31    1
     4    31    34    1
     5    31    32    1
     6    32    35    1
     7    32    33    1
     8    33    36    1
     9    33    44    1
    10    39    40    1
    11    39    42    2
    12    39    41   am
    13    41    43    1
    14    29    28    1
    15    34    37    1
    16    35    38    1
    17    29    36    1
    18    44    45    1
    19    45    46    1
    20    15     6    1
    21    15    16   ar
    22    16    21    2
    23    16    17   ar
    24    17    23    1
    25    17    18   ar
    26    18    19   ar
    27    19    20   ar
    28    15    20   ar
    29    18    22    2
    30     6     7    1
    31     6    11    1
    32     7     9    1
    33     7     8    1
    34     8    13    1
    35     9    10    1
    36     9    12    1
    37    10     5    1
    38    10    11    1
    39    12    14    1
    40     5     4    1
    41     4     1    1
    42     1     2    1
    43     1    24    1
    44     1     3    2
    45    24    25    1
    46    28    25    1
    47    25    26    1
    48    25    27    2
@<TRIPOS>MOLECULE
UD2
 46 48 0 0 0
SMALL
GASTEIGER

@<TRIPOS>ATOM
      1 P          22.1591   70.8045   -2.7379 P.3     1  UNL1        0.2189
      2 O          23.6240   70.6289   -3.3817 O.3     1  UNL1       -0.4371
      3 O          21.3215   69.6369   -3.0905 O.2     1  UNL1       -0.5170
      4 O          22.2862   70.9097   -1.1359 O.3     1  UNL1       -0.3112
      5 C          21.1732   71.1894   -0.2847 C.3     1  UNL1        0.1811
      6 C          21.4752   74.0578    1.8641 C.3     1  UNL1        0.2383
      7 C          22.8774   73.9021    1.2226 C.3     1  UNL1        0.1895
      8 O          23.5174   75.1718    1.0809 O.3     1  UNL1       -0.3779
      9 C          22.5366   73.2977   -0.1616 C.3     1  UNL1        0.1713
     10 C          21.1351   72.6871    0.0289 C.3     1  UNL1        0.1764
     11 O          20.7631   72.8897    1.4015 O.3     1  UNL1       -0.3308
     12 O          22.5058   74.3204   -1.1585 O.3     1  UNL1       -0.3794
     13 H          24.3981   75.1266    0.6847 H       1  UNL1        0.2106
     14 H          23.3482   74.7793   -1.2785 H       1  UNL1        0.2105
     15 N          21.5735   74.0575    3.3254 N.ar    1  UNL1       -0.2551
     16 C          21.8452   72.9116    3.9748 C.ar    1  UNL1        0.3323
     17 N          21.9412   72.8820    5.3172 N.ar    1  UNL1       -0.2743
     18 C          21.7666   74.0101    6.0352 C.ar    1  UNL1        0.2626
     19 C          21.4811   75.2237    5.3645 C.ar    1  UNL1        0.0795
     20 C          21.3948   75.2250    4.0176 C.ar    1  UNL1        0.0869
     21 O          22.0052   71.8868    3.3403 O.2     1  UNL1       -0.2464
     22 O          21.8536   73.9848    7.2502 O.2     1  UNL1       -0.2670
     23 H          22.1365   72.0470    5.7697 H       1  UNL1        0.1734
     24 O          21.4781   72.1466   -3.3108 O.3     1  UNL1       -0.2703
     25 P          21.3270   72.7831   -4.7822 P.3     1  UNL1        0.2208
     26 O          20.9288   74.3385   -4.6552 O.3     1  UNL1       -0.4371
     27 O          22.6108   72.6608   -5.5071 O.2     1  UNL1       -0.5170
     28 O          20.1767   71.9985   -5.5908 O.3     1  UNL1       -0.2865
     29 C          19.0477   72.6542   -6.1710 C.3     1  UNL1        0.2611
     30 C          17.7647   71.9376   -5.7429 C.3     1  UNL1        0.1582
     31 C          17.7914   70.5008   -6.2733 C.3     1  UNL1        0.1625
     32 C          17.9584   70.5327   -7.7950 C.3     1  UNL1        0.1686
     33 C          19.2343   71.3036   -8.1439 C.3     1  UNL1        0.1760
     34 O          16.5646   69.8466   -5.9411 O.3     1  UNL1       -0.3801
     35 O          16.8309   71.1817   -8.3857 O.3     1  UNL1       -0.3794
     36 O          19.1581   72.6209   -7.5954 O.3     1  UNL1       -0.3263
     37 H          16.5126   68.9305   -6.2463 H       1  UNL1        0.2105
     38 H          16.8700   71.2385   -9.3507 H       1  UNL1        0.2105
     39 C          16.4902   72.0941   -3.6720 C.2     1  UNL1        0.2231
     40 C          16.4019   72.0741   -2.1686 C.3     1  UNL1        0.0946
     41 N          17.6797   71.9182   -4.2804 N.am    1  UNL1       -0.2994
     42 O          15.4899   72.2687   -4.3363 O.2     1  UNL1       -0.2751
     43 H          18.4798   71.7796   -3.7497 H       1  UNL1        0.1496
     44 C          19.3769   71.3914   -9.6646 C.3     1  UNL1        0.1693
     45 O          18.4710   72.3729  -10.1729 O.3     1  UNL1       -0.3794
     46 H          18.5069   72.4823  -11.1329 H       1  UNL1        0.2105
@<TRIPOS>BOND
     1    29    30    1
     2    30    41    1
     3    30    31    1
     4    31    34    1
     5    31    32    1
     6    32    35    1
     7    32    33    1
     8    33    36    1
     9    33    44    1
    10    39    40    1
    11    39    42    2
    12    39    41   am
    13    41    43    1
    14    29    28    1
    15    34    37    1
    16    35    38    1
    17    29    36    1
    18    44    45    1
    19    45    46    1
    20    15     6    1
    21    15    16   ar
    22    16    21    2
    23    16    17   ar
    24    17    23    1
    25    17    18   ar
    26    18    19   ar
    27    19    20   ar
    28    15    20   ar
    29    18    22    2
    30     6     7    1
    31     6    11    1
    32     7     9    1
    33     7     8    1
    34     8    13    1
    35     9    10    1
    36     9    12    1
    37    10     5    1
    38    10    11    1
    39    12    14    1
    40     5     4    1
    41     4     1    1
    42     1     2    1
    43     1    24    1
    44     1     3    2
    45    24    25    1
    46    28    25    1
    47    25    26    1
    48    25    27    2
@<TRIPOS>MOLECULE
UD2
 46 48 0 0 0
SMALL
GASTEIGER

@<TRIPOS>ATOM
      1 P          22.2600   70.3868   -0.2343 P.3     1  UNL1        0.2189
      2 O          21.4740   70.6518    1.1453 O.3     1  UNL1       -0.4371
      3 O          23.4171   69.5003    0.0189 O.2     1  UNL1       -0.5170
      4 O          21.2675   69.6855   -1.2910 O.3     1  UNL1       -0.3112
      5 C          21.2667   70.0016   -2.6844 C.3     1  UNL1        0.1811
      6 C          18.6382   70.8203   -4.9991 C.3     1  UNL1        0.2383
      7 C          18.2456   69.4292   -4.4397 C.3     1  UNL1        0.1895
      8 O          16.8254   69.2749   -4.4069 O.3     1  UNL1       -0.3779
      9 C          18.8290   69.4785   -3.0063 C.3     1  UNL1        0.1713
     10 C          19.9043   70.5797   -3.0751 C.3     1  UNL1        0.1764
     11 O          19.9450   71.0538   -4.4305 O.3     1  UNL1       -0.3308
     12 O          17.8126   69.8294   -2.0658 O.3     1  UNL1       -0.3794
     13 H          16.5302   68.4202   -4.0650 H       1  UNL1        0.2106
     14 H          17.0802   69.1999   -2.0238 H       1  UNL1        0.2105
     15 N          18.7099   70.7866   -6.4615 N.ar    1  UNL1       -0.2551
     16 C          17.5809   70.8797   -7.1864 C.ar    1  UNL1        0.3323
     17 N          17.6171   70.8514   -8.5318 N.ar    1  UNL1       -0.2743
     18 C          18.7952   70.7302   -9.1766 C.ar    1  UNL1        0.2626
     19 C          19.9916   70.6323   -8.4261 C.ar    1  UNL1        0.0795
     20 C          19.9261   70.6677   -7.0786 C.ar    1  UNL1        0.0869
     21 O          16.5115   70.9896   -6.6183 O.2     1  UNL1       -0.2464
     22 O          18.8294   70.7048  -10.3943 O.2     1  UNL1       -0.2670
     23 H          16.7935   70.9184   -9.0391 H       1  UNL1        0.1734
     24 O          22.7785   71.7883   -0.8346 O.3     1  UNL1       -0.2703
     25 P          22.2254   73.2997   -0.7828 P.3     1  UNL1        0.2208
     26 O          20.6562   73.2842   -0.4205 O.3     1  UNL1       -0.4371
     27 O          22.9621   74.0597    0.2506 O.2     1  UNL1       -0.5170
     28 O          22.4384   73.9985   -2.2177 O.3     1  UNL1       -0.2865
     29 C          23.5537   73.7141   -3.0641 C.3     1  UNL1        0.2611
     30 C          24.4880   74.9259   -3.1032 C.3     1  UNL1        0.1582
     31 C          23.7386   76.1182   -3.7061 C.3     1  UNL1        0.1625
     32 C          23.2264   75.7351   -5.0972 C.3     1  UNL1        0.1686
     33 C          22.3406   74.4918   -4.9812 C.3     1  UNL1        0.1760
     34 O          24.6255   77.2340   -3.8142 O.3     1  UNL1       -0.3801
     35 O          24.3349   75.4541   -5.9536 O.3     1  UNL1       -0.3794
     36 O          23.0884   73.4300   -4.3851 O.3     1  UNL1       -0.3263
     37 H          24.2164   78.0263   -4.1885 H       1  UNL1        0.2105
     38 H          24.0838   75.2029   -6.8535 H       1  UNL1        0.2105
     39 C          26.2209   75.4894   -1.4855 C.2     1  UNL1        0.2231
     40 C          26.6646   75.8288   -0.0867 C.3     1  UNL1        0.0946
     41 N          24.9188   75.2557   -1.7423 N.am    1  UNL1       -0.2994
     42 O          27.0360   75.4262   -2.3821 O.2     1  UNL1       -0.2751
     43 H          24.2669   75.3051   -1.0256 H       1  UNL1        0.1496
     44 C          21.8730   74.0672   -6.3746 C.3     1  UNL1        0.1693
     45 O          22.7653   73.0807   -6.8971 O.3     1  UNL1       -0.3794
     46 H          22.5297   72.7647   -7.7801 H       1  UNL1        0.2105
@<TRIPOS>BOND
     1    29    30    1
     2    30    41    1
     3    30    31    1
     4    31    34    1
     5    31    32    1
     6    32    35    1
     7    32    33    1
     8    33    36    1
     9    33    44    1
    10    39    40    1
    11    39    42    2
    12    39    41   am
    13    41    43    1
    14    29    28    1
    15    34    37    1
    16    35    38    1
    17    29    36    1
    18    44    45    1
    19    45    46    1
    20    15     6    1
    21    15    16   ar
    22    16    21    2
    23    16    17   ar
    24    17    23    1
    25    17    18   ar
    26    18    19   ar
    27    19    20   ar
    28    15    20   ar
    29    18    22    2
    30     6     7    1
    31     6    11    1
    32     7     9    1
    33     7     8    1
    34     8    13    1
    35     9    10    1
    36     9    12    1
    37    10     5    1
    38    10    11    1
    39    12    14    1
    40     5     4    1
    41     4     1    1
    42     1     2    1
    43     1    24    1
    44     1     3    2
    45    24    25    1
    46    28    25    1
    47    25    26    1
    48    25    27    2
@<TRIPOS>MOLECULE
UD2
 46 48 0 0 0
SMALL
GASTEIGER

@<TRIPOS>ATOM
      1 P          22.0905   70.5780   -2.7146 P.3     1  UNL1        0.2189
      2 O          23.6140   70.4398   -3.2159 O.3     1  UNL1       -0.4371
      3 O          21.2428   69.6036   -3.4363 O.2     1  UNL1       -0.5170
      4 O          22.0175   70.2849   -1.1327 O.3     1  UNL1       -0.3112
      5 C          22.4677   71.2171   -0.1480 C.3     1  UNL1        0.1811
      6 C          20.7190   73.3101    2.1968 C.3     1  UNL1        0.2383
      7 C          21.4749   74.3024    1.2770 C.3     1  UNL1        0.1895
      8 O          20.7546   75.5300    1.1499 O.3     1  UNL1       -0.3779
      9 C          21.5063   73.5385   -0.0695 C.3     1  UNL1        0.1713
     10 C          21.2863   72.0663    0.3277 C.3     1  UNL1        0.1764
     11 O          21.1958   72.0186    1.7605 O.3     1  UNL1       -0.3308
     12 O          20.4535   73.9893   -0.9235 O.3     1  UNL1       -0.3794
     13 H          21.1876   76.1836    0.5844 H       1  UNL1        0.2106
     14 H          20.5095   74.9255   -1.1575 H       1  UNL1        0.2105
     15 N          21.0661   73.5414    3.6007 N.ar    1  UNL1       -0.2551
     16 C          20.2394   74.2590    4.3821 C.ar    1  UNL1        0.3323
     17 N          20.5333   74.4873    5.6758 N.ar    1  UNL1       -0.2743
     18 C          21.6687   73.9943    6.2111 C.ar    1  UNL1        0.2626
     19 C          22.5474   73.2363    5.4004 C.ar    1  UNL1        0.0795
     20 C          22.2256   73.0194    4.1078 C.ar    1  UNL1        0.0869
     21 O          19.2122   74.7094    3.9128 O.2     1  UNL1       -0.2464
     22 O          21.9356   74.1999    7.3820 O.2     1  UNL1       -0.2670
     23 H          19.9269   75.0078    6.2248 H       1  UNL1        0.1734
     24 O          21.5620   72.0706   -3.0081 O.3     1  UNL1       -0.2703
     25 P          21.3541   72.9397   -4.3477 P.3     1  UNL1        0.2208
     26 O          21.2344   74.4988   -3.9621 O.3     1  UNL1       -0.4371
     27 O          22.5108   72.7424   -5.2485 O.2     1  UNL1       -0.5170
     28 O          20.0070   72.4654   -5.0914 O.3     1  UNL1       -0.2865
     29 C          20.0115   71.7413   -6.3230 C.3     1  UNL1        0.2611
     30 C          19.5475   72.6587   -7.4570 C.3     1  UNL1        0.1582
     31 C          18.1076   73.1045   -7.1847 C.3     1  UNL1        0.1625
     32 C          17.2196   71.8655   -7.0403 C.3     1  UNL1        0.1686
     33 C          17.7734   70.9785   -5.9221 C.3     1  UNL1        0.1760
     34 O          17.6407   73.9022   -8.2752 O.3     1  UNL1       -0.3801
     35 O          17.2126   71.1370   -8.2693 O.3     1  UNL1       -0.3794
     36 O          19.1251   70.6249   -6.2220 O.3     1  UNL1       -0.3263
     37 H          16.7337   74.2203   -8.1692 H       1  UNL1        0.2105
     38 H          16.6691   70.3369   -8.2500 H       1  UNL1        0.2105
     39 C          21.3543   73.9261   -8.4900 C.2     1  UNL1        0.2231
     40 C          22.2512   75.1342   -8.5592 C.3     1  UNL1        0.0946
     41 N          20.4197   73.8340   -7.5234 N.am    1  UNL1       -0.2994
     42 O          21.4729   73.0349   -9.3048 O.2     1  UNL1       -0.2751
     43 H          20.3252   74.5459   -6.8712 H       1  UNL1        0.1496
     44 C          16.9264   69.7094   -5.8113 C.3     1  UNL1        0.1693
     45 O          16.7561   69.3681   -4.4341 O.3     1  UNL1       -0.3794
     46 H          16.2278   68.5715   -4.2881 H       1  UNL1        0.2105
@<TRIPOS>BOND
     1    29    30    1
     2    30    41    1
     3    30    31    1
     4    31    34    1
     5    31    32    1
     6    32    35    1
     7    32    33    1
     8    33    36    1
     9    33    44    1
    10    39    40    1
    11    39    42    2
    12    39    41   am
    13    41    43    1
    14    29    28    1
    15    34    37    1
    16    35    38    1
    17    29    36    1
    18    44    45    1
    19    45    46    1
    20    15     6    1
    21    15    16   ar
    22    16    21    2
    23    16    17   ar
    24    17    23    1
    25    17    18   ar
    26    18    19   ar
    27    19    20   ar
    28    15    20   ar
    29    18    22    2
    30     6     7    1
    31     6    11    1
    32     7     9    1
    33     7     8    1
    34     8    13    1
    35     9    10    1
    36     9    12    1
    37    10     5    1
    38    10    11    1
    39    12    14    1
    40     5     4    1
    41     4     1    1
    42     1     2    1
    43     1    24    1
    44     1     3    2
    45    24    25    1
    46    28    25    1
    47    25    26    1
    48    25    27    2
@<TRIPOS>MOLECULE
UD2
 46 48 0 0 0
SMALL
GASTEIGER

@<TRIPOS>ATOM
      1 P          21.9998   70.9004   -2.0976 P.3     1  UNL1        0.2189
      2 O          21.4231   69.4858   -1.5899 O.3     1  UNL1       -0.4371
      3 O          23.1637   70.6707   -2.9815 O.2     1  UNL1       -0.5170
      4 O          20.8538   71.6857   -2.9124 O.3     1  UNL1       -0.3112
      5 C          19.4611   71.5435   -2.6267 C.3     1  UNL1        0.1811
      6 C          18.0989   72.4726   -5.8232 C.3     1  UNL1        0.2383
      7 C          16.9868   71.6226   -5.1579 C.3     1  UNL1        0.1895
      8 O          15.6925   72.0503   -5.5866 O.3     1  UNL1       -0.3779
      9 C          17.1995   71.9276   -3.6548 C.3     1  UNL1        0.1713
     10 C          18.6529   72.4325   -3.5751 C.3     1  UNL1        0.1764
     11 O          19.2038   72.3615   -4.8999 O.3     1  UNL1       -0.3308
     12 O          16.2927   72.9415   -3.2183 O.3     1  UNL1       -0.3794
     13 H          14.9634   71.5482   -5.1981 H       1  UNL1        0.2106
     14 H          15.3607   72.6993   -3.3022 H       1  UNL1        0.2105
     15 N          18.4601   71.9180   -7.1297 N.ar    1  UNL1       -0.2551
     16 C          17.8707   72.3931   -8.2414 C.ar    1  UNL1        0.3323
     17 N          18.1832   71.9019   -9.4551 N.ar    1  UNL1       -0.2743
     18 C          19.1000   70.9201   -9.5746 C.ar    1  UNL1        0.2626
     19 C          19.7290   70.4114   -8.4128 C.ar    1  UNL1        0.0795
     20 C          19.3995   70.9254   -7.2092 C.ar    1  UNL1        0.0869
     21 O          17.0424   73.2784   -8.1487 O.2     1  UNL1       -0.2464
     22 O          19.3840   70.4750  -10.6726 O.2     1  UNL1       -0.2670
     23 H          17.7479   72.2550  -10.2463 H       1  UNL1        0.1734
     24 O          22.4546   71.7815   -0.8287 O.3     1  UNL1       -0.2703
     25 P          22.5383   73.3631   -0.5383 P.3     1  UNL1        0.2208
     26 O          21.0612   74.0006   -0.6113 O.3     1  UNL1       -0.4371
     27 O          23.1060   73.5882    0.8091 O.2     1  UNL1       -0.5170
     28 O          23.4801   74.0621   -1.6415 O.3     1  UNL1       -0.2865
     29 C          23.5321   75.4764   -1.8372 C.3     1  UNL1        0.2611
     30 C          23.9556   75.7781   -3.2768 C.3     1  UNL1        0.1582
     31 C          25.3641   75.2239   -3.5123 C.3     1  UNL1        0.1625
     32 C          26.3204   75.8365   -2.4854 C.3     1  UNL1        0.1686
     33 C          25.8056   75.5324   -1.0760 C.3     1  UNL1        0.1760
     34 O          25.7969   75.5653   -4.8312 O.3     1  UNL1       -0.3801
     35 O          26.3841   77.2510   -2.6764 O.3     1  UNL1       -0.3794
     36 O          24.4804   76.0474   -0.9332 O.3     1  UNL1       -0.3263
     37 H          26.6827   75.2445   -5.0493 H       1  UNL1        0.2105
     38 H          26.9727   77.7059   -2.0579 H       1  UNL1        0.2105
     39 C          23.2318   73.8787   -4.6206 C.2     1  UNL1        0.2231
     40 C          22.2680   73.2249   -5.5757 C.3     1  UNL1        0.0946
     41 N          23.0178   75.1429   -4.2060 N.am    1  UNL1       -0.2994
     42 O          24.2018   73.2671   -4.2240 O.2     1  UNL1       -0.2751
     43 H          22.2429   75.6326   -4.5237 H       1  UNL1        0.1496
     44 C          26.7233   76.1920   -0.0448 C.3     1  UNL1        0.1693
     45 O          26.5768   75.5330    1.2148 O.3     1  UNL1       -0.3794
     46 H          27.1304   75.8995    1.9178 H       1  UNL1        0.2105
@<TRIPOS>BOND
     1    29    30    1
     2    30    41    1
     3    30    31    1
     4    31    34    1
     5    31    32    1
     6    32    35    1
     7    32    33    1
     8    33    36    1
     9    33    44    1
    10    39    40    1
    11    39    42    2
    12    39    41   am
    13    41    43    1
    14    29    28    1
    15    34    37    1
    16    35    38    1
    17    29    36    1
    18    44    45    1
    19    45    46    1
    20    15     6    1
    21    15    16   ar
    22    16    21    2
    23    16    17   ar
    24    17    23    1
    25    17    18   ar
    26    18    19   ar
    27    19    20   ar
    28    15    20   ar
    29    18    22    2
    30     6     7    1
    31     6    11    1
    32     7     9    1
    33     7     8    1
    34     8    13    1
    35     9    10    1
    36     9    12    1
    37    10     5    1
    38    10    11    1
    39    12    14    1
    40     5     4    1
    41     4     1    1
    42     1     2    1
    43     1    24    1
    44     1     3    2
    45    24    25    1
    46    28    25    1
    47    25    26    1
    48    25    27    2
@<TRIPOS>MOLECULE
UD2
 46 48 0 0 0
SMALL
GASTEIGER

@<TRIPOS>ATOM
      1 P          22.6930   75.4050   -3.9899 P.3     1  UNL1        0.2189
      2 O          22.4049   76.2691   -2.6627 O.3     1  UNL1       -0.4371
      3 O          22.1490   76.1142   -5.1689 O.2     1  UNL1       -0.5170
      4 O          24.2815   75.2083   -4.1677 O.3     1  UNL1       -0.3112
      5 C          25.1372   74.7921   -3.1018 C.3     1  UNL1        0.1811
      6 C          28.3804   75.5410   -4.4645 C.3     1  UNL1        0.2383
      7 C          27.4130   76.4893   -5.2174 C.3     1  UNL1        0.1895
      8 O          28.0692   77.7064   -5.5777 O.3     1  UNL1       -0.3779
      9 C          26.3168   76.7465   -4.1545 C.3     1  UNL1        0.1713
     10 C          26.4565   75.5647   -3.1760 C.3     1  UNL1        0.1764
     11 O          27.4951   74.7109   -3.6818 O.3     1  UNL1       -0.3308
     12 O          26.5548   77.9841   -3.4818 O.3     1  UNL1       -0.3794
     13 H          27.5051   78.3323   -6.0516 H       1  UNL1        0.2106
     14 H          26.5374   78.7574   -4.0616 H       1  UNL1        0.2105
     15 N          29.1472   74.7284   -5.4115 N.ar    1  UNL1       -0.2551
     16 C          30.1888   73.9992   -4.9730 C.ar    1  UNL1        0.3323
     17 N          30.9112   73.2435   -5.8211 N.ar    1  UNL1       -0.2743
     18 C          30.5972   73.2053   -7.1320 C.ar    1  UNL1        0.2626
     19 C          29.5027   73.9671   -7.6070 C.ar    1  UNL1        0.0795
     20 C          28.7932   74.7125   -6.7338 C.ar    1  UNL1        0.0869
     21 O          30.4832   74.0239   -3.7936 O.2     1  UNL1       -0.2464
     22 O          31.2500   72.5214   -7.9005 O.2     1  UNL1       -0.2670
     23 H          31.6598   72.7247   -5.4885 H       1  UNL1        0.1734
     24 O          21.9862   73.9642   -3.8566 O.3     1  UNL1       -0.2703
     25 P          22.2633   72.5184   -4.5091 P.3     1  UNL1        0.2208
     26 O          22.6021   72.6924   -6.0739 O.3     1  UNL1       -0.4371
     27 O          23.4089   71.8796   -3.8251 O.2     1  UNL1       -0.5170
     28 O          20.9551   71.5947   -4.3423 O.3     1  UNL1       -0.2865
     29 C          19.6897   72.1061   -3.9196 C.3     1  UNL1        0.2611
     30 C          19.1410   71.2384   -2.7844 C.3     1  UNL1        0.1582
     31 C          18.9171   69.8149   -3.3039 C.3     1  UNL1        0.1625
     32 C          17.9704   69.8647   -4.5062 C.3     1  UNL1        0.1686
     33 C          18.5645   70.7856   -5.5753 C.3     1  UNL1        0.1760
     34 O          18.3358   69.0159   -2.2710 O.3     1  UNL1       -0.3801
     35 O          16.6995   70.3698   -4.0928 O.3     1  UNL1       -0.3794
     36 O          18.7765   72.0845   -5.0186 O.3     1  UNL1       -0.3263
     37 H          18.1671   68.0998   -2.5309 H       1  UNL1        0.2105
     38 H          16.0483   70.4294   -4.8058 H       1  UNL1        0.2105
     39 C          21.0302   70.2345   -1.6179 C.2     1  UNL1        0.2231
     40 C          22.0202   70.2058   -0.4832 C.3     1  UNL1        0.0946
     41 N          20.1035   71.2110   -1.6802 N.am    1  UNL1       -0.2994
     42 O          21.0664   69.3781   -2.4767 O.2     1  UNL1       -0.2751
     43 H          20.0736   71.8954   -0.9934 H       1  UNL1        0.1496
     44 C          17.5962   70.8879   -6.7553 C.3     1  UNL1        0.1693
     45 O          18.3251   71.1965   -7.9452 O.3     1  UNL1       -0.3794
     46 H          17.7735   71.2767   -8.7354 H       1  UNL1        0.2105
@<TRIPOS>BOND
     1    29    30    1
     2    30    41    1
     3    30    31    1
     4    31    34    1
     5    31    32    1
     6    32    35    1
     7    32    33    1
     8    33    36    1
     9    33    44    1
    10    39    40    1
    11    39    42    2
    12    39    41   am
    13    41    43    1
    14    29    28    1
    15    34    37    1
    16    35    38    1
    17    29    36    1
    18    44    45    1
    19    45    46    1
    20    15     6    1
    21    15    16   ar
    22    16    21    2
    23    16    17   ar
    24    17    23    1
    25    17    18   ar
    26    18    19   ar
    27    19    20   ar
    28    15    20   ar
    29    18    22    2
    30     6     7    1
    31     6    11    1
    32     7     9    1
    33     7     8    1
    34     8    13    1
    35     9    10    1
    36     9    12    1
    37    10     5    1
    38    10    11    1
    39    12    14    1
    40     5     4    1
    41     4     1    1
    42     1     2    1
    43     1    24    1
    44     1     3    2
    45    24    25    1
    46    28    25    1
    47    25    26    1
    48    25    27    2
@<TRIPOS>MOLECULE
UD2
 46 48 0 0 0
SMALL
GASTEIGER

@<TRIPOS>ATOM
      1 P          22.0972   70.8981   -0.1541 P.3     1  UNL1        0.2189
      2 O          21.6286   69.5439    0.5793 O.3     1  UNL1       -0.4371
      3 O          23.2317   70.6037   -1.0569 O.2     1  UNL1       -0.5170
      4 O          20.8713   71.4963   -1.0102 O.3     1  UNL1       -0.3112
      5 C          20.8534   71.5075   -2.4388 C.3     1  UNL1        0.1811
      6 C          18.3517   70.8155   -4.9286 C.3     1  UNL1        0.2383
      7 C          18.6743   69.4335   -4.3057 C.3     1  UNL1        0.1895
      8 O          17.5282   68.5806   -4.3352 O.3     1  UNL1       -0.3779
      9 C          19.0446   69.8110   -2.8505 C.3     1  UNL1        0.1713
     10 C          19.4189   71.3033   -2.9322 C.3     1  UNL1        0.1764
     11 O          19.3155   71.6954   -4.3103 O.3     1  UNL1       -0.3308
     12 O          17.9233   69.6228   -1.9856 O.3     1  UNL1       -0.3794
     13 H          17.6802   67.7040   -3.9570 H       1  UNL1        0.2106
     14 H          17.6079   68.7101   -1.9422 H       1  UNL1        0.2105
     15 N          18.5391   70.7833   -6.3808 N.ar    1  UNL1       -0.2551
     16 C          17.4851   70.5532   -7.1839 C.ar    1  UNL1        0.3323
     17 N          17.6283   70.5178   -8.5219 N.ar    1  UNL1       -0.2743
     18 C          18.8397   70.7160   -9.0804 C.ar    1  UNL1        0.2626
     19 C          19.9577   70.9603   -8.2470 C.ar    1  UNL1        0.0795
     20 C          19.7843   70.9944   -6.9090 C.ar    1  UNL1        0.0869
     21 O          16.3869   70.3730   -6.6942 O.2     1  UNL1       -0.2464
     22 O          18.9706   70.6847  -10.2913 O.2     1  UNL1       -0.2670
     23 H          16.8581   70.3495   -9.0863 H       1  UNL1        0.1734
     24 O          22.5558   71.9762    0.9508 O.3     1  UNL1       -0.2703
     25 P          21.7698   72.8622    2.0418 P.3     1  UNL1        0.2208
     26 O          20.6060   73.7029    1.3120 O.3     1  UNL1       -0.4371
     27 O          21.1703   71.9729    3.0606 O.2     1  UNL1       -0.5170
     28 O          22.7995   73.8757    2.7525 O.3     1  UNL1       -0.2865
     29 C          23.2364   73.7209    4.1040 C.3     1  UNL1        0.2611
     30 C          22.4590   74.6828    5.0058 C.3     1  UNL1        0.1582
     31 C          22.7609   76.1234    4.5815 C.3     1  UNL1        0.1625
     32 C          24.2725   76.3579    4.6490 C.3     1  UNL1        0.1686
     33 C          24.9801   75.3312    3.7606 C.3     1  UNL1        0.1760
     34 O          22.0970   77.0301    5.4648 O.3     1  UNL1       -0.3801
     35 O          24.7188   76.2111    5.9983 O.3     1  UNL1       -0.3794
     36 O          24.6327   74.0131    4.1892 O.3     1  UNL1       -0.3263
     37 H          22.2439   77.9624    5.2541 H       1  UNL1        0.2105
     38 H          25.6697   76.3457    6.1156 H       1  UNL1        0.2105
     39 C          20.2996   74.0718    5.9551 C.2     1  UNL1        0.2231
     40 C          18.8232   73.8061    5.8207 C.3     1  UNL1        0.0946
     41 N          21.0229   74.4243    4.8741 N.am    1  UNL1       -0.2994
     42 O          20.8386   73.9684    7.0373 O.2     1  UNL1       -0.2751
     43 H          20.5926   74.5061    4.0086 H       1  UNL1        0.1496
     44 C          26.4943   75.5207    3.8692 C.3     1  UNL1        0.1693
     45 O          26.9913   74.7664    4.9766 O.3     1  UNL1       -0.3794
     46 H          27.9468   74.8397    5.1059 H       1  UNL1        0.2105
@<TRIPOS>BOND
     1    29    30    1
     2    30    41    1
     3    30    31    1
     4    31    34    1
     5    31    32    1
     6    32    35    1
     7    32    33    1
     8    33    36    1
     9    33    44    1
    10    39    40    1
    11    39    42    2
    12    39    41   am
    13    41    43    1
    14    29    28    1
    15    34    37    1
    16    35    38    1
    17    29    36    1
    18    44    45    1
    19    45    46    1
    20    15     6    1
    21    15    16   ar
    22    16    21    2
    23    16    17   ar
    24    17    23    1
    25    17    18   ar
    26    18    19   ar
    27    19    20   ar
    28    15    20   ar
    29    18    22    2
    30     6     7    1
    31     6    11    1
    32     7     9    1
    33     7     8    1
    34     8    13    1
    35     9    10    1
    36     9    12    1
    37    10     5    1
    38    10    11    1
    39    12    14    1
    40     5     4    1
    41     4     1    1
    42     1     2    1
    43     1    24    1
    44     1     3    2
    45    24    25    1
    46    28    25    1
    47    25    26    1
    48    25    27    2
@<TRIPOS>MOLECULE
UD2
 46 48 0 0 0
SMALL
GASTEIGER

@<TRIPOS>ATOM
      1 P          22.9608   72.3389   -3.4592 P.3     1  UNL1        0.2189
      2 O          24.1524   73.3937   -3.2171 O.3     1  UNL1       -0.4371
      3 O          23.4542   70.9683   -3.2006 O.2     1  UNL1       -0.5170
      4 O          21.7416   72.6680   -2.4597 O.3     1  UNL1       -0.3112
      5 C          21.8640   73.5634   -1.3530 C.3     1  UNL1        0.1811
      6 C          22.7675   73.2203    2.1114 C.3     1  UNL1        0.2383
      7 C          21.2868   72.7668    2.0481 C.3     1  UNL1        0.1895
      8 O          21.0142   71.7752    3.0401 O.3     1  UNL1       -0.3779
      9 C          21.1916   72.1649    0.6247 C.3     1  UNL1        0.1713
     10 C          22.3761   72.7966   -0.1313 C.3     1  UNL1        0.1764
     11 O          23.0288   73.7003    0.7747 O.3     1  UNL1       -0.3308
     12 O          21.3296   70.7439    0.6737 O.3     1  UNL1       -0.3794
     13 H          20.1003   71.4601    3.0409 H       1  UNL1        0.2106
     14 H          20.6425   70.2987    1.1877 H       1  UNL1        0.2105
     15 N          22.9356   74.2979    3.0890 N.ar    1  UNL1       -0.2551
     16 C          21.9580   75.2067    3.2536 C.ar    1  UNL1        0.3323
     17 N          22.0855   76.2078    4.1446 N.ar    1  UNL1       -0.2743
     18 C          23.2032   76.3130    4.8918 C.ar    1  UNL1        0.2626
     19 C          24.2399   75.3626    4.7296 C.ar    1  UNL1        0.0795
     20 C          24.0833   74.3670    3.8319 C.ar    1  UNL1        0.0869
     21 O          20.9446   75.1240    2.5869 O.2     1  UNL1       -0.2464
     22 O          23.3198   77.2183    5.6989 O.2     1  UNL1       -0.2670
     23 H          21.3715   76.8553    4.2499 H       1  UNL1        0.1734
     24 O          22.4492   72.4470   -4.9824 O.3     1  UNL1       -0.2703
     25 P          21.2968   73.2988   -5.7167 P.3     1  UNL1        0.2208
     26 O          21.0151   74.6486   -4.8846 O.3     1  UNL1       -0.4371
     27 O          21.7365   73.6466   -7.0857 O.2     1  UNL1       -0.5170
     28 O          19.9478   72.4229   -5.7921 O.3     1  UNL1       -0.2865
     29 C          18.7289   72.9172   -6.3501 C.3     1  UNL1        0.2611
     30 C          17.5577   72.0647   -5.8559 C.3     1  UNL1        0.1582
     31 C          17.7431   70.6251   -6.3454 C.3     1  UNL1        0.1625
     32 C          17.8560   70.6270   -7.8723 C.3     1  UNL1        0.1686
     33 C          19.0161   71.5351   -8.2888 C.3     1  UNL1        0.1760
     34 O          16.6170   69.8381   -5.9507 O.3     1  UNL1       -0.3801
     35 O          16.6392   71.1145   -8.4406 O.3     1  UNL1       -0.3794
     36 O          18.7968   72.8508   -7.7760 O.3     1  UNL1       -0.3263
     37 H          16.6678   68.9129   -6.2275 H       1  UNL1        0.2105
     38 H          16.6400   71.1439   -9.4077 H       1  UNL1        0.2105
     39 C          16.3427   72.1705   -3.7463 C.2     1  UNL1        0.2231
     40 C          16.3058   72.1894   -2.2407 C.3     1  UNL1        0.0946
     41 N          17.5227   72.0832   -4.3913 N.am    1  UNL1       -0.2994
     42 O          15.3095   72.2339   -4.3794 O.2     1  UNL1       -0.2751
     43 H          18.3490   72.0335   -3.8856 H       1  UNL1        0.1496
     44 C          19.0980   71.5896   -9.8155 C.3     1  UNL1        0.1693
     45 O          18.6212   70.3587  -10.3631 O.3     1  UNL1       -0.3794
     46 H          18.6443   70.3222  -11.3291 H       1  UNL1        0.2105
@<TRIPOS>BOND
     1    29    30    1
     2    30    41    1
     3    30    31    1
     4    31    34    1
     5    31    32    1
     6    32    35    1
     7    32    33    1
     8    33    36    1
     9    33    44    1
    10    39    40    1
    11    39    42    2
    12    39    41   am
    13    41    43    1
    14    29    28    1
    15    34    37    1
    16    35    38    1
    17    29    36    1
    18    44    45    1
    19    45    46    1
    20    15     6    1
    21    15    16   ar
    22    16    21    2
    23    16    17   ar
    24    17    23    1
    25    17    18   ar
    26    18    19   ar
    27    19    20   ar
    28    15    20   ar
    29    18    22    2
    30     6     7    1
    31     6    11    1
    32     7     9    1
    33     7     8    1
    34     8    13    1
    35     9    10    1
    36     9    12    1
    37    10     5    1
    38    10    11    1
    39    12    14    1
    40     5     4    1
    41     4     1    1
    42     1     2    1
    43     1    24    1
    44     1     3    2
    45    24    25    1
    46    28    25    1
    47    25    26    1
    48    25    27    2
@<TRIPOS>MOLECULE
UD2
 46 48 0 0 0
SMALL
GASTEIGER

@<TRIPOS>ATOM
      1 P          20.5104   70.6372   -2.7351 P.3     1  UNL1        0.2189
      2 O          20.5091   69.0288   -2.8018 O.3     1  UNL1       -0.4371
      3 O          21.4976   71.1708   -3.6993 O.2     1  UNL1       -0.5170
      4 O          19.0443   71.1907   -3.1063 O.3     1  UNL1       -0.3112
      5 C          18.1299   70.4728   -3.9370 C.3     1  UNL1        0.1811
      6 C          18.7309   72.4744   -6.8643 C.3     1  UNL1        0.2383
      7 C          18.4464   71.0539   -7.4151 C.3     1  UNL1        0.1895
      8 O          17.8301   71.1201   -8.7026 O.3     1  UNL1       -0.3779
      9 C          17.4641   70.4870   -6.3610 C.3     1  UNL1        0.1713
     10 C          17.7078   71.3569   -5.1130 C.3     1  UNL1        0.1764
     11 O          18.7611   72.2795   -5.4336 O.3     1  UNL1       -0.3308
     12 O          16.1153   70.6241   -6.8113 O.3     1  UNL1       -0.3794
     13 H          17.6328   70.2563   -9.0894 H       1  UNL1        0.2106
     14 H          15.9217   70.1441   -7.6277 H       1  UNL1        0.2105
     15 N          20.0242   72.9649   -7.3459 N.ar    1  UNL1       -0.2551
     16 C          20.0721   73.7757   -8.4179 C.ar    1  UNL1        0.3323
     17 N          21.2467   74.2413   -8.8824 N.ar    1  UNL1       -0.2743
     18 C          22.4006   73.9001   -8.2735 C.ar    1  UNL1        0.2626
     19 C          22.3648   73.0481   -7.1435 C.ar    1  UNL1        0.0795
     20 C          21.1728   72.5996   -6.6969 C.ar    1  UNL1        0.0869
     21 O          19.0396   74.0918   -8.9767 O.2     1  UNL1       -0.2464
     22 O          23.4644   74.3211   -8.6927 O.2     1  UNL1       -0.2670
     23 H          21.2635   74.8240   -9.6572 H       1  UNL1        0.1734
     24 O          20.9019   71.1126   -1.2472 O.3     1  UNL1       -0.2703
     25 P          22.0565   70.6917   -0.2066 P.3     1  UNL1        0.2208
     26 O          21.6078   69.3617    0.5830 O.3     1  UNL1       -0.4371
     27 O          23.3121   70.4276   -0.9429 O.2     1  UNL1       -0.5170
     28 O          22.2922   71.8873    0.8458 O.3     1  UNL1       -0.2865
     29 C          21.2376   72.7269    1.3193 C.3     1  UNL1        0.2611
     30 C          21.5059   74.1729    0.8954 C.3     1  UNL1        0.1582
     31 C          22.8085   74.6525    1.5433 C.3     1  UNL1        0.1625
     32 C          22.6948   74.5046    3.0630 C.3     1  UNL1        0.1686
     33 C          22.3807   73.0453    3.4033 C.3     1  UNL1        0.1760
     34 O          23.0289   76.0254    1.2122 O.3     1  UNL1       -0.3801
     35 O          21.6460   75.3450    3.5476 O.3     1  UNL1       -0.3794
     36 O          21.1744   72.6534    2.7451 O.3     1  UNL1       -0.3263
     37 H          23.8388   76.3954    1.5894 H       1  UNL1        0.2105
     38 H          21.5168   75.3013    4.5054 H       1  UNL1        0.2105
     39 C          22.8461   74.1653   -1.1396 C.2     1  UNL1        0.2231
     40 C          22.9750   74.2343   -2.6387 C.3     1  UNL1        0.0946
     41 N          21.6305   74.2403   -0.5628 N.am    1  UNL1       -0.2994
     42 O          23.8371   74.0422   -0.4504 O.2     1  UNL1       -0.2751
     43 H          20.8380   74.3398   -1.1134 H       1  UNL1        0.1496
     44 C          22.2065   72.9009    4.9164 C.3     1  UNL1        0.1693
     45 O          20.8392   73.1299    5.2632 O.3     1  UNL1       -0.3794
     46 H          20.6550   73.0545    6.2095 H       1  UNL1        0.2105
@<TRIPOS>BOND
     1    29    30    1
     2    30    41    1
     3    30    31    1
     4    31    34    1
     5    31    32    1
     6    32    35    1
     7    32    33    1
     8    33    36    1
     9    33    44    1
    10    39    40    1
    11    39    42    2
    12    39    41   am
    13    41    43    1
    14    29    28    1
    15    34    37    1
    16    35    38    1
    17    29    36    1
    18    44    45    1
    19    45    46    1
    20    15     6    1
    21    15    16   ar
    22    16    21    2
    23    16    17   ar
    24    17    23    1
    25    17    18   ar
    26    18    19   ar
    27    19    20   ar
    28    15    20   ar
    29    18    22    2
    30     6     7    1
    31     6    11    1
    32     7     9    1
    33     7     8    1
    34     8    13    1
    35     9    10    1
    36     9    12    1
    37    10     5    1
    38    10    11    1
    39    12    14    1
    40     5     4    1
    41     4     1    1
    42     1     2    1
    43     1    24    1
    44     1     3    2
    45    24    25    1
    46    28    25    1
    47    25    26    1
    48    25    27    2
@<TRIPOS>MOLECULE
UD2
 46 48 0 0 0
SMALL
GASTEIGER

@<TRIPOS>ATOM
      1 P          22.4317   71.6193   -2.9667 P.3     1  UNL1        0.2189
      2 O          23.5036   72.1714   -4.0332 O.3     1  UNL1       -0.4371
      3 O          22.4310   70.1399   -2.9877 O.2     1  UNL1       -0.5170
      4 O          22.8266   72.1350   -1.4930 O.3     1  UNL1       -0.3112
      5 C          22.5857   71.3691   -0.3111 C.3     1  UNL1        0.1811
      6 C          20.5540   72.8436    2.2647 C.3     1  UNL1        0.2383
      7 C          20.8377   74.0056    1.2792 C.3     1  UNL1        0.1895
      8 O          19.7534   74.9361    1.2621 O.3     1  UNL1       -0.3779
      9 C          20.9500   73.2634   -0.0751 C.3     1  UNL1        0.1713
     10 C          21.2609   71.8067    0.3185 C.3     1  UNL1        0.1764
     11 O          21.3625   71.7629    1.7507 O.3     1  UNL1       -0.3308
     12 O          19.7143   73.3365   -0.7880 O.3     1  UNL1       -0.3794
     13 H          19.8841   75.6817    0.6607 H       1  UNL1        0.2106
     14 H          19.4399   74.2365   -1.0099 H       1  UNL1        0.2105
     15 N          20.9745   73.2031    3.6208 N.ar    1  UNL1       -0.2551
     16 C          20.0764   73.7086    4.4850 C.ar    1  UNL1        0.3323
     17 N          20.4350   74.0479    5.7374 N.ar    1  UNL1       -0.2743
     18 C          21.7093   73.8827    6.1468 C.ar    1  UNL1        0.2626
     19 C          22.6648   73.3508    5.2479 C.ar    1  UNL1        0.0795
     20 C          22.2765   73.0153    3.9996 C.ar    1  UNL1        0.0869
     21 O          18.9239   73.8627    4.1295 O.2     1  UNL1       -0.2464
     22 O          22.0350   74.1891    7.2802 O.2     1  UNL1       -0.2670
     23 H          19.7752   74.4121    6.3473 H       1  UNL1        0.1734
     24 O          20.9648   72.1625   -3.3494 O.3     1  UNL1       -0.2703
     25 P          20.0693   72.1159   -4.6869 P.3     1  UNL1        0.2208
     26 O          19.7787   70.5826   -5.0845 O.3     1  UNL1       -0.4371
     27 O          18.7873   72.8141   -4.4471 O.2     1  UNL1       -0.5170
     28 O          20.8598   72.8416   -5.8874 O.3     1  UNL1       -0.2865
     29 C          20.2174   73.6867   -6.8436 C.3     1  UNL1        0.2611
     30 C          20.6996   73.3255   -8.2507 C.3     1  UNL1        0.1582
     31 C          22.2074   73.5786   -8.3449 C.3     1  UNL1        0.1625
     32 C          22.4918   75.0410   -7.9915 C.3     1  UNL1        0.1686
     33 C          21.9404   75.3361   -6.5940 C.3     1  UNL1        0.1760
     34 O          22.6534   73.3138   -9.6769 O.3     1  UNL1       -0.3801
     35 O          21.8582   75.8949   -8.9457 O.3     1  UNL1       -0.3794
     36 O          20.5405   75.0508   -6.5661 O.3     1  UNL1       -0.3263
     37 H          23.6012   73.4530   -9.8089 H       1  UNL1        0.2105
     38 H          21.9960   76.8385   -8.7826 H       1  UNL1        0.2105
     39 C          19.5012   71.5648   -9.4346 C.2     1  UNL1        0.2231
     40 C          19.2165   70.1111   -9.7067 C.3     1  UNL1        0.0946
     41 N          20.4231   71.9111   -8.5146 N.am    1  UNL1       -0.2994
     42 O          18.9004   72.4252  -10.0437 O.2     1  UNL1       -0.2751
     43 H          20.9030   71.2236   -8.0267 H       1  UNL1        0.1496
     44 C          22.1675   76.8111   -6.2574 C.3     1  UNL1        0.1693
     45 O          22.1087   76.9917   -4.8410 O.3     1  UNL1       -0.3794
     46 H          22.2444   77.9052   -4.5545 H       1  UNL1        0.2105
@<TRIPOS>BOND
     1    29    30    1
     2    30    41    1
     3    30    31    1
     4    31    34    1
     5    31    32    1
     6    32    35    1
     7    32    33    1
     8    33    36    1
     9    33    44    1
    10    39    40    1
    11    39    42    2
    12    39    41   am
    13    41    43    1
    14    29    28    1
    15    34    37    1
    16    35    38    1
    17    29    36    1
    18    44    45    1
    19    45    46    1
    20    15     6    1
    21    15    16   ar
    22    16    21    2
    23    16    17   ar
    24    17    23    1
    25    17    18   ar
    26    18    19   ar
    27    19    20   ar
    28    15    20   ar
    29    18    22    2
    30     6     7    1
    31     6    11    1
    32     7     9    1
    33     7     8    1
    34     8    13    1
    35     9    10    1
    36     9    12    1
    37    10     5    1
    38    10    11    1
    39    12    14    1
    40     5     4    1
    41     4     1    1
    42     1     2    1
    43     1    24    1
    44     1     3    2
    45    24    25    1
    46    28    25    1
    47    25    26    1
    48    25    27    2
@<TRIPOS>MOLECULE
UD2
 46 48 0 0 0
SMALL
GASTEIGER

@<TRIPOS>ATOM
      1 P          23.3391   74.6053   -4.3006 P.3     1  UNL1        0.2189
      2 O          24.2812   73.3370   -3.9921 O.3     1  UNL1       -0.4371
      3 O          23.1504   75.3932   -3.0627 O.2     1  UNL1       -0.5170
      4 O          24.0325   75.5281   -5.4237 O.3     1  UNL1       -0.3112
      5 C          24.8128   76.6825   -5.1078 C.3     1  UNL1        0.1811
      6 C          27.2053   76.3508   -7.7730 C.3     1  UNL1        0.2383
      7 C          25.8791   75.8162   -8.3709 C.3     1  UNL1        0.1895
      8 O          25.8206   76.0567   -9.7782 O.3     1  UNL1       -0.3779
      9 C          24.8202   76.6615   -7.6216 C.3     1  UNL1        0.1713
     10 C          25.5554   77.1542   -6.3605 C.3     1  UNL1        0.1764
     11 O          26.8761   76.5898   -6.3873 O.3     1  UNL1       -0.3308
     12 O          24.4063   77.7684   -8.4243 O.3     1  UNL1       -0.3794
     13 H          25.0097   75.7395  -10.1984 H       1  UNL1        0.2106
     14 H          23.9899   77.5158   -9.2592 H       1  UNL1        0.2105
     15 N          28.2644   75.3456   -7.8861 N.ar    1  UNL1       -0.2551
     16 C          28.6153   74.6230   -6.8075 C.ar    1  UNL1        0.3323
     17 N          29.5853   73.6926   -6.8826 N.ar    1  UNL1       -0.2743
     18 C          30.2226   73.4692   -8.0499 C.ar    1  UNL1        0.2626
     19 C          29.8627   74.2219   -9.1935 C.ar    1  UNL1        0.0795
     20 C          28.8837   75.1452   -9.0905 C.ar    1  UNL1        0.0869
     21 O          28.0490   74.8136   -5.7486 O.2     1  UNL1       -0.2464
     22 O          31.1005   72.6271   -8.1192 O.2     1  UNL1       -0.2670
     23 H          29.8268   73.1812   -6.0950 H       1  UNL1        0.1734
     24 O          21.9086   74.0942   -4.8353 O.3     1  UNL1       -0.2703
     25 P          21.3860   73.5031   -6.2390 P.3     1  UNL1        0.2208
     26 O          21.0793   74.7175   -7.2513 O.3     1  UNL1       -0.4371
     27 O          22.4244   72.6257   -6.8223 O.2     1  UNL1       -0.5170
     28 O          20.0398   72.6537   -5.9956 O.3     1  UNL1       -0.2865
     29 C          18.7634   73.0581   -6.4941 C.3     1  UNL1        0.2611
     30 C          17.6795   72.1346   -5.9329 C.3     1  UNL1        0.1582
     31 C          17.9370   70.7050   -6.4190 C.3     1  UNL1        0.1625
     32 C          17.9717   70.6962   -7.9497 C.3     1  UNL1        0.1686
     33 C          19.0447   71.6753   -8.4333 C.3     1  UNL1        0.1760
     34 O          16.8884   69.8488   -5.9601 O.3     1  UNL1       -0.3801
     35 O          16.6973   71.0938   -8.4587 O.3     1  UNL1       -0.3794
     36 O          18.7630   72.9793   -7.9210 O.3     1  UNL1       -0.3263
     37 H          16.9878   68.9259   -6.2312 H       1  UNL1        0.2105
     38 H          16.6469   71.1116   -9.4247 H       1  UNL1        0.2105
     39 C          16.5690   72.1933   -3.7648 C.2     1  UNL1        0.2231
     40 C          16.6075   72.2277   -2.2595 C.3     1  UNL1        0.0946
     41 N          17.7178   72.1684   -4.4687 N.am    1  UNL1       -0.2994
     42 O          15.5031   72.1880   -4.3444 O.2     1  UNL1       -0.2751
     43 H          18.5702   72.1736   -4.0057 H       1  UNL1        0.1496
     44 C          19.0450   71.7169   -9.9625 C.3     1  UNL1        0.1693
     45 O          18.2738   72.8339  -10.4096 O.3     1  UNL1       -0.3794
     46 H          18.2302   72.9227  -11.3715 H       1  UNL1        0.2105
@<TRIPOS>BOND
     1    29    30    1
     2    30    41    1
     3    30    31    1
     4    31    34    1
     5    31    32    1
     6    32    35    1
     7    32    33    1
     8    33    36    1
     9    33    44    1
    10    39    40    1
    11    39    42    2
    12    39    41   am
    13    41    43    1
    14    29    28    1
    15    34    37    1
    16    35    38    1
    17    29    36    1
    18    44    45    1
    19    45    46    1
    20    15     6    1
    21    15    16   ar
    22    16    21    2
    23    16    17   ar
    24    17    23    1
    25    17    18   ar
    26    18    19   ar
    27    19    20   ar
    28    15    20   ar
    29    18    22    2
    30     6     7    1
    31     6    11    1
    32     7     9    1
    33     7     8    1
    34     8    13    1
    35     9    10    1
    36     9    12    1
    37    10     5    1
    38    10    11    1
    39    12    14    1
    40     5     4    1
    41     4     1    1
    42     1     2    1
    43     1    24    1
    44     1     3    2
    45    24    25    1
    46    28    25    1
    47    25    26    1
    48    25    27    2
@<TRIPOS>MOLECULE
UD2
 46 48 0 0 0
SMALL
GASTEIGER

@<TRIPOS>ATOM
      1 P          22.3434   70.4277   -0.4272 P.3     1  UNL1        0.2189
      2 O          21.2551   70.7597    0.7115 O.3     1  UNL1       -0.4371
      3 O          23.4096   69.5746    0.1423 O.2     1  UNL1       -0.5170
      4 O          21.6276   69.6518   -1.6435 O.3     1  UNL1       -0.3112
      5 C          21.2362   70.2996   -2.8554 C.3     1  UNL1        0.1811
      6 C          18.0943   71.2841   -4.3031 C.3     1  UNL1        0.2383
      7 C          18.1515   69.7483   -4.5035 C.3     1  UNL1        0.1895
      8 O          16.8399   69.1817   -4.4811 O.3     1  UNL1       -0.3779
      9 C          18.9722   69.2901   -3.2730 C.3     1  UNL1        0.1713
     10 C          19.7276   70.5579   -2.8310 C.3     1  UNL1        0.1764
     11 O          19.3952   71.6004   -3.7616 O.3     1  UNL1       -0.3308
     12 O          18.1026   68.8376   -2.2338 O.3     1  UNL1       -0.3794
     13 H          16.8233   68.2228   -4.6030 H       1  UNL1        0.2106
     14 H          17.5590   68.0765   -2.4784 H       1  UNL1        0.2105
     15 N          17.8889   71.9641   -5.5840 N.ar    1  UNL1       -0.2551
     16 C          18.8342   71.8884   -6.5377 C.ar    1  UNL1        0.3323
     17 N          18.6721   72.5035   -7.7241 N.ar    1  UNL1       -0.2743
     18 C          17.5502   73.2083   -7.9755 C.ar    1  UNL1        0.2626
     19 C          16.5465   73.2954   -6.9810 C.ar    1  UNL1        0.0795
     20 C          16.7336   72.6652   -5.8023 C.ar    1  UNL1        0.0869
     21 O          19.8508   71.2563   -6.3249 O.2     1  UNL1       -0.2464
     22 O          17.4021   73.7652   -9.0491 O.2     1  UNL1       -0.2670
     23 H          19.3641   72.4398   -8.4003 H       1  UNL1        0.1734
     24 O          22.9869   71.7999   -0.9715 O.3     1  UNL1       -0.2703
     25 P          22.6697   73.3589   -0.7233 P.3     1  UNL1        0.2208
     26 O          23.7405   74.2578   -1.5227 O.3     1  UNL1       -0.4371
     27 O          21.3068   73.6686   -1.2080 O.2     1  UNL1       -0.5170
     28 O          22.7662   73.6821    0.8512 O.3     1  UNL1       -0.2865
     29 C          22.5642   74.9892    1.3914 C.3     1  UNL1        0.2611
     30 C          23.6855   75.3118    2.3821 C.3     1  UNL1        0.1582
     31 C          23.6310   74.3149    3.5439 C.3     1  UNL1        0.1625
     32 C          22.2461   74.3796    4.1935 C.3     1  UNL1        0.1686
     33 C          21.1800   74.0928    3.1327 C.3     1  UNL1        0.1760
     34 O          24.6282   74.6535    4.5104 O.3     1  UNL1       -0.3801
     35 O          22.0363   75.6819    4.7423 O.3     1  UNL1       -0.3794
     36 O          21.3055   75.0359    2.0665 O.3     1  UNL1       -0.3263
     37 H          24.6512   74.0619    5.2750 H       1  UNL1        0.2105
     38 H          21.1761   75.7952    5.1704 H       1  UNL1        0.2105
     39 C          25.9587   76.0920    1.9802 C.2     1  UNL1        0.2231
     40 C          27.2910   75.9836    1.2860 C.3     1  UNL1        0.0946
     41 N          24.9811   75.2058    1.7063 N.am    1  UNL1       -0.2994
     42 O          25.7649   76.9776    2.7866 O.2     1  UNL1       -0.2751
     43 H          25.1352   74.4982    1.0609 H       1  UNL1        0.1496
     44 C          19.7903   74.2143    3.7606 C.3     1  UNL1        0.1693
     45 O          19.5078   73.0402    4.5249 O.3     1  UNL1       -0.3794
     46 H          18.6407   73.0480    4.9528 H       1  UNL1        0.2105
@<TRIPOS>BOND
     1    29    30    1
     2    30    41    1
     3    30    31    1
     4    31    34    1
     5    31    32    1
     6    32    35    1
     7    32    33    1
     8    33    36    1
     9    33    44    1
    10    39    40    1
    11    39    42    2
    12    39    41   am
    13    41    43    1
    14    29    28    1
    15    34    37    1
    16    35    38    1
    17    29    36    1
    18    44    45    1
    19    45    46    1
    20    15     6    1
    21    15    16   ar
    22    16    21    2
    23    16    17   ar
    24    17    23    1
    25    17    18   ar
    26    18    19   ar
    27    19    20   ar
    28    15    20   ar
    29    18    22    2
    30     6     7    1
    31     6    11    1
    32     7     9    1
    33     7     8    1
    34     8    13    1
    35     9    10    1
    36     9    12    1
    37    10     5    1
    38    10    11    1
    39    12    14    1
    40     5     4    1
    41     4     1    1
    42     1     2    1
    43     1    24    1
    44     1     3    2
    45    24    25    1
    46    28    25    1
    47    25    26    1
    48    25    27    2
