@<TRIPOS>MOLECULE
*****
 43 45 0 0 0
SMALL
GASTEIGER

@<TRIPOS>ATOM
      1 P          22.9745   71.6401   -2.7092 P.3     1  UNL1        0.2189
      2 O          23.7897   72.9651   -3.1532 O.co2   1  UNL1       -0.4371
      3 O          23.5064   70.3524   -3.2662 O.2     1  UNL1       -0.5170
      4 O          21.4385   71.9857   -3.0824 O.3     1  UNL1       -0.3112
      5 C          20.5898   70.9300   -3.4982 C.3     1  UNL1        0.1811
      6 O          18.7344   71.9679   -4.6182 O.3     1  UNL1       -0.3308
      7 O          17.0104   70.7565   -2.4849 O.3     1  UNL1       -0.3794
      8 O          16.6314   69.0629   -4.5883 O.3     1  UNL1       -0.3779
      9 C          18.1757   70.2248   -3.1131 C.3     1  UNL1        0.1713
     10 C          17.8529   69.7701   -4.5212 C.3     1  UNL1        0.1895
     11 C          19.1405   71.3770   -3.3643 C.3     1  UNL1        0.1764
     12 C          17.8075   71.0882   -5.2753 C.3     1  UNL1        0.2383
     13 H          16.3795   70.0391   -2.3142 H       1  UNL1        0.2105
     14 H          16.7110   68.2323   -4.0938 H       1  UNL1        0.2106
     15 O          16.0453   70.3710   -7.3629 O.2     1  UNL1       -0.2464
     16 O          19.4035   70.5711  -10.5131 O.2     1  UNL1       -0.2670
     17 N          18.1945   70.9460   -6.6506 N.ar    1  UNL1       -0.2551
     18 N          17.7188   70.4714   -8.9298 N.ar    1  UNL1       -0.2743
     19 C          17.2323   70.5811   -7.6209 C.ar    1  UNL1        0.3323
     20 C          19.5151   71.1679   -7.0253 C.ar    1  UNL1        0.0869
     21 C          19.9633   71.0579   -8.2777 C.ar    1  UNL1        0.0795
     22 C          19.0222   70.6805   -9.3519 C.ar    1  UNL1        0.2626
     23 H          17.0665   70.2179   -9.6226 H       1  UNL1        0.1734
     24 O          22.9854   71.7304   -1.0953 O.3     1  UNL1       -0.2703
     25 P          22.4739   70.6885    0.0297 P.3     1  UNL1        0.2208
     26 O          23.6865   69.6218    0.1263 O.co2   1  UNL1       -0.4371
     27 O          21.1336   70.0777   -0.2613 O.2     1  UNL1       -0.5170
     28 O          22.5461   71.5144    1.4145 O.3     1  UNL1       -0.2858
     29 O          21.4661   72.2374    3.3962 O.3     1  UNL1       -0.3258
     30 O          21.2096   75.7223    1.1959 O.3     1  UNL1       -0.3794
     31 O          23.0398   75.5710    3.4040 O.3     1  UNL1       -0.3794
     32 O          20.8606   73.1618   -0.1087 O.3     1  UNL1       -0.3775
     33 C          21.8149   74.5073    1.6464 C.3     1  UNL1        0.1715
     34 C          22.0203   74.6060    3.1593 C.3     1  UNL1        0.1694
     35 C          20.8970   73.3354    1.3038 C.3     1  UNL1        0.1967
     36 C          22.4160   73.2480    3.7544 C.3     1  UNL1        0.1761
     37 C          21.3521   72.0435    1.9851 C.3     1  UNL1        0.2704
     38 H          21.7876   76.4703    1.4100 H       1  UNL1        0.2105
     39 H          22.7778   76.4237    3.0228 H       1  UNL1        0.2105
     40 H          20.5708   73.9864   -0.5283 H       1  UNL1        0.2106
     41 O          21.1494   73.2220    5.7802 O.3     1  UNL1       -0.3794
     42 C          22.4722   73.2866    5.2800 C.3     1  UNL1        0.1693
     43 H          21.1696   73.2454    6.7502 H       1  UNL1        0.2105
@<TRIPOS>UNITY_ATOM_ATTR
2 1
charge -1
26 1
charge -1
@<TRIPOS>BOND
     1    25    28    1
     2    25    24    1
     3    25    26    1
     4    25    27    2
     5     1     4    1
     6     1    24    1
     7     1     2    1
     8     1     3    2
     9     6    11    1
    10     6    12    1
    11    29    36    1
    12    29    37    1
    13     7     9    1
    14     7    13    1
    15     8    10    1
    16     8    14    1
    17    28    37    1
    18     4     5    1
    19    30    33    1
    20    30    38    1
    21    31    34    1
    22    31    39    1
    23    32    35    1
    24    32    40    1
    25    41    42    1
    26    41    43    1
    27    15    19    2
    28    16    22    2
    29    17    12    1
    30    17    19   ar
    31    17    20   ar
    32    18    19   ar
    33    18    22   ar
    34    18    23    1
    35     9    10    1
    36     9    11    1
    37    10    12    1
    38    11     5    1
    39    33    34    1
    40    33    35    1
    41    34    36    1
    42    35    37    1
    43    36    42    1
    44    20    21   ar
    45    21    22   ar
@<TRIPOS>MOLECULE
*****
 43 45 0 0 0
SMALL
GASTEIGER

@<TRIPOS>ATOM
      1 P          23.0012   71.9235   -3.1747 P.3     1  UNL1        0.2189
      2 O          23.8085   72.9363   -4.1442 O.co2   1  UNL1       -0.4371
      3 O          23.5297   70.5195   -3.1439 O.2     1  UNL1       -0.5170
      4 O          21.4604   72.0842   -3.6416 O.3     1  UNL1       -0.3112
      5 C          20.6198   70.9441   -3.6030 C.3     1  UNL1        0.1811
      6 O          18.7574   71.9649   -4.7268 O.3     1  UNL1       -0.3308
      7 O          17.0498   70.8049   -2.5520 O.3     1  UNL1       -0.3794
      8 O          16.6448   69.0688   -4.6156 O.3     1  UNL1       -0.3779
      9 C          18.2072   70.2559   -3.1800 C.3     1  UNL1        0.1713
     10 C          17.8693   69.7729   -4.5751 C.3     1  UNL1        0.1895
     11 C          19.1735   71.3991   -3.4646 C.3     1  UNL1        0.1764
     12 C          17.8211   71.0750   -5.3563 C.3     1  UNL1        0.2383
     13 H          16.4181   70.0935   -2.3602 H       1  UNL1        0.2105
     14 H          16.7263   68.2485   -4.1045 H       1  UNL1        0.2106
     15 O          16.0084   70.4796   -7.4390 O.2     1  UNL1       -0.2464
     16 O          19.3662   70.4336  -10.5957 O.2     1  UNL1       -0.2670
     17 N          18.1944   70.9024   -6.7319 N.ar    1  UNL1       -0.2551
     18 N          17.6818   70.4574   -9.0091 N.ar    1  UNL1       -0.2743
     19 C          17.2068   70.6044   -7.6996 C.ar    1  UNL1        0.3323
     20 C          19.5267   71.0293   -7.1096 C.ar    1  UNL1        0.0869
     21 C          19.9635   70.8848   -8.3624 C.ar    1  UNL1        0.0795
     22 C          18.9959   70.5726   -9.4340 C.ar    1  UNL1        0.2626
     23 H          17.0118   70.2491   -9.7002 H       1  UNL1        0.1734
     24 O          23.0301   72.6846   -1.7490 O.3     1  UNL1       -0.2703
     25 P          22.2082   72.4130   -0.3838 P.3     1  UNL1        0.2208
     26 O          22.4518   70.8370   -0.1113 O.co2   1  UNL1       -0.4371
     27 O          20.7629   72.8147   -0.4454 O.2     1  UNL1       -0.5170
     28 O          23.0622   73.1617    0.7630 O.3     1  UNL1       -0.2858
     29 O          21.9634   73.8876    2.7334 O.3     1  UNL1       -0.3258
     30 O          25.3037   76.3087    2.9105 O.3     1  UNL1       -0.3794
     31 O          25.0477   74.1097    4.7400 O.3     1  UNL1       -0.3794
     32 O          24.0555   75.7549    0.3581 O.3     1  UNL1       -0.3775
     33 C          24.5754   75.1125    2.6205 C.3     1  UNL1        0.1715
     34 C          23.9787   74.5857    3.9271 C.3     1  UNL1        0.1694
     35 C          23.4706   75.4321    1.6152 C.3     1  UNL1        0.1967
     36 C          22.9683   73.4617    3.6611 C.3     1  UNL1        0.1761
     37 C          22.4926   74.2660    1.4611 C.3     1  UNL1        0.2704
     38 H          26.0070   76.1126    3.5480 H       1  UNL1        0.2105
     39 H          25.6788   74.8290    4.9001 H       1  UNL1        0.2105
     40 H          24.6723   76.4946    0.4690 H       1  UNL1        0.2106
     41 O          20.8573   72.9627    4.6629 O.3     1  UNL1       -0.3794
     42 C          22.2451   73.0295    4.9348 C.3     1  UNL1        0.1693
     43 H          20.3842   72.6884    5.4646 H       1  UNL1        0.2105
@<TRIPOS>UNITY_ATOM_ATTR
2 1
charge -1
26 1
charge -1
@<TRIPOS>BOND
     1    25    28    1
     2    25    24    1
     3    25    26    1
     4    25    27    2
     5     1     4    1
     6     1    24    1
     7     1     2    1
     8     1     3    2
     9     6    11    1
    10     6    12    1
    11    29    36    1
    12    29    37    1
    13     7     9    1
    14     7    13    1
    15     8    10    1
    16     8    14    1
    17    28    37    1
    18     4     5    1
    19    30    33    1
    20    30    38    1
    21    31    34    1
    22    31    39    1
    23    32    35    1
    24    32    40    1
    25    41    42    1
    26    41    43    1
    27    15    19    2
    28    16    22    2
    29    17    12    1
    30    17    19   ar
    31    17    20   ar
    32    18    19   ar
    33    18    22   ar
    34    18    23    1
    35     9    10    1
    36     9    11    1
    37    10    12    1
    38    11     5    1
    39    33    34    1
    40    33    35    1
    41    34    36    1
    42    35    37    1
    43    36    42    1
    44    20    21   ar
    45    21    22   ar
@<TRIPOS>MOLECULE
*****
 43 45 0 0 0
SMALL
GASTEIGER

@<TRIPOS>ATOM
      1 P          22.8245   71.8807   -2.2908 P.3     1  UNL1        0.2189
      2 O          23.5438   73.3263   -2.3928 O.co2   1  UNL1       -0.4371
      3 O          23.4023   70.8211   -3.1824 O.2     1  UNL1       -0.5170
      4 O          21.2566   72.2103   -2.5160 O.3     1  UNL1       -0.3112
      5 C          20.5340   71.4441   -3.4640 C.3     1  UNL1        0.1811
      6 O          18.5773   72.2997   -4.5655 O.3     1  UNL1       -0.3308
      7 O          16.9968   70.9164   -2.4256 O.3     1  UNL1       -0.3794
      8 O          16.7694   69.2024   -4.5344 O.3     1  UNL1       -0.3779
      9 C          18.2037   70.5041   -3.0648 C.3     1  UNL1        0.1713
     10 C          17.9162   70.0257   -4.4727 C.3     1  UNL1        0.1895
     11 C          19.0490   71.7463   -3.3174 C.3     1  UNL1        0.1764
     12 C          17.7360   71.3361   -5.2201 C.3     1  UNL1        0.2383
     13 H          16.4405   70.1398   -2.2538 H       1  UNL1        0.2105
     14 H          16.9338   68.3815   -4.0445 H       1  UNL1        0.2106
     15 O          16.0903   72.0636   -7.3973 O.2     1  UNL1       -0.2464
     16 O          19.3310   70.9162  -10.4669 O.2     1  UNL1       -0.2670
     17 N          18.1245   71.2381   -6.5988 N.ar    1  UNL1       -0.2551
     18 N          17.7053   71.4919   -8.9239 N.ar    1  UNL1       -0.2743
     19 C          17.2229   71.6288   -7.6161 C.ar    1  UNL1        0.3323
     20 C          19.3873   70.7594   -6.9306 C.ar    1  UNL1        0.0869
     21 C          19.8317   70.6337   -8.1828 C.ar    1  UNL1        0.0795
     22 C          18.9516   71.0200   -9.3045 C.ar    1  UNL1        0.2626
     23 H          17.0944   71.7576   -9.6491 H       1  UNL1        0.1734
     24 O          22.9024   71.5466   -0.7112 O.3     1  UNL1       -0.2703
     25 P          22.0235   70.5481    0.2072 P.3     1  UNL1        0.2208
     26 O          23.1413   69.7504    1.0627 O.co2   1  UNL1       -0.4371
     27 O          21.0881   69.6642   -0.5659 O.2     1  UNL1       -0.5170
     28 O          21.2994   71.5115    1.2808 O.3     1  UNL1       -0.2858
     29 O          21.6947   73.8452    1.1609 O.3     1  UNL1       -0.3258
     30 O          20.3355   73.6052    5.0527 O.3     1  UNL1       -0.3794
     31 O          18.6561   74.7671    3.0334 O.3     1  UNL1       -0.3794
     32 O          22.0401   71.5221    3.9875 O.3     1  UNL1       -0.3775
     33 C          20.3930   73.2503    3.6684 C.3     1  UNL1        0.1715
     34 C          20.0400   74.4879    2.8410 C.3     1  UNL1        0.1694
     35 C          21.8027   72.7652    3.3357 C.3     1  UNL1        0.1967
     36 C          20.3379   74.2625    1.3525 C.3     1  UNL1        0.1761
     37 C          22.0088   72.6205    1.8268 C.3     1  UNL1        0.2704
     38 H          19.4428   73.9136    5.2706 H       1  UNL1        0.2105
     39 H          18.4814   74.9069    3.9774 H       1  UNL1        0.2105
     40 H          21.9067   71.6270    4.9420 H       1  UNL1        0.2106
     41 O          19.4722   75.1964   -0.6692 O.3     1  UNL1       -0.3794
     42 C          20.1423   75.5349    0.5311 C.3     1  UNL1        0.1693
     43 H          19.3406   75.9966   -1.2021 H       1  UNL1        0.2105
@<TRIPOS>UNITY_ATOM_ATTR
2 1
charge -1
26 1
charge -1
@<TRIPOS>BOND
     1    25    28    1
     2    25    24    1
     3    25    26    1
     4    25    27    2
     5     1     4    1
     6     1    24    1
     7     1     2    1
     8     1     3    2
     9     6    11    1
    10     6    12    1
    11    29    36    1
    12    29    37    1
    13     7     9    1
    14     7    13    1
    15     8    10    1
    16     8    14    1
    17    28    37    1
    18     4     5    1
    19    30    33    1
    20    30    38    1
    21    31    34    1
    22    31    39    1
    23    32    35    1
    24    32    40    1
    25    41    42    1
    26    41    43    1
    27    15    19    2
    28    16    22    2
    29    17    12    1
    30    17    19   ar
    31    17    20   ar
    32    18    19   ar
    33    18    22   ar
    34    18    23    1
    35     9    10    1
    36     9    11    1
    37    10    12    1
    38    11     5    1
    39    33    34    1
    40    33    35    1
    41    34    36    1
    42    35    37    1
    43    36    42    1
    44    20    21   ar
    45    21    22   ar
@<TRIPOS>MOLECULE
*****
 43 45 0 0 0
SMALL
GASTEIGER

@<TRIPOS>ATOM
      1 P          23.0169   71.7905   -3.2846 P.3     1  UNL1        0.2189
      2 O          23.8222   72.8083   -4.2504 O.co2   1  UNL1       -0.4371
      3 O          23.6608   70.4477   -3.1013 O.2     1  UNL1       -0.5170
      4 O          21.5202   71.7740   -3.8992 O.3     1  UNL1       -0.3112
      5 C          20.6621   70.6985   -3.5607 C.3     1  UNL1        0.1811
      6 O          18.8550   71.8493   -4.6488 O.3     1  UNL1       -0.3308
      7 O          17.0923   70.7232   -2.5004 O.3     1  UNL1       -0.3794
      8 O          16.5891   69.0696   -4.6097 O.3     1  UNL1       -0.3779
      9 C          18.2168   70.1302   -3.1478 C.3     1  UNL1        0.1713
     10 C          17.8500   69.7051   -4.5543 C.3     1  UNL1        0.1895
     11 C          19.2428   71.2269   -3.4043 C.3     1  UNL1        0.1764
     12 C          17.8705   71.0291   -5.2991 C.3     1  UNL1        0.2383
     13 H          16.4234   70.0420   -2.3259 H       1  UNL1        0.2105
     14 H          16.6272   68.2322   -4.1218 H       1  UNL1        0.2106
     15 O          16.0378   70.4638   -7.3726 O.2     1  UNL1       -0.2464
     16 O          19.3658   70.4578  -10.5609 O.2     1  UNL1       -0.2670
     17 N          18.2307   70.8750   -6.6804 N.ar    1  UNL1       -0.2551
     18 N          17.6964   70.4615   -8.9585 N.ar    1  UNL1       -0.2743
     19 C          17.2339   70.5910   -7.6427 C.ar    1  UNL1        0.3323
     20 C          19.5596   71.0058   -7.0687 C.ar    1  UNL1        0.0869
     21 C          19.9845   70.8780   -8.3275 C.ar    1  UNL1        0.0795
     22 C          19.0066   70.5813   -9.3941 C.ar    1  UNL1        0.2626
     23 H          17.0198   70.2632   -9.6460 H       1  UNL1        0.1734
     24 O          22.8411   72.6438   -1.9230 O.3     1  UNL1       -0.2703
     25 P          22.4338   74.1898   -1.6843 P.3     1  UNL1        0.2208
     26 O          21.0261   74.3282   -2.4695 O.co2   1  UNL1       -0.4371
     27 O          23.4818   75.1755   -2.1133 O.2     1  UNL1       -0.5170
     28 O          22.0386   74.2715   -0.1215 O.3     1  UNL1       -0.2858
     29 O          23.4244   74.5907    1.7744 O.3     1  UNL1       -0.3258
     30 O          20.6552   72.0008    3.4098 O.3     1  UNL1       -0.3794
     31 O          20.6288   74.7700    4.1705 O.3     1  UNL1       -0.3794
     32 O          21.5452   71.6279    0.6806 O.3     1  UNL1       -0.3775
     33 C          21.1055   73.0629    2.5645 C.3     1  UNL1        0.1715
     34 C          21.6968   74.1621    3.4492 C.3     1  UNL1        0.1694
     35 C          22.1609   72.5215    1.6020 C.3     1  UNL1        0.1967
     36 C          22.4389   75.2102    2.6091 C.3     1  UNL1        0.1761
     37 C          22.8728   73.6489    0.8521 C.3     1  UNL1        0.2704
     38 H          19.9845   72.3377    4.0231 H       1  UNL1        0.2105
     39 H          20.1682   74.0974    4.6965 H       1  UNL1        0.2105
     40 H          21.0984   70.9187    1.1677 H       1  UNL1        0.2106
     41 O          22.2373   77.2052    3.9084 O.3     1  UNL1       -0.3794
     42 C          23.1695   76.2292    3.4809 C.3     1  UNL1        0.1693
     43 H          22.6882   77.8603    4.4645 H       1  UNL1        0.2105
@<TRIPOS>UNITY_ATOM_ATTR
2 1
charge -1
26 1
charge -1
@<TRIPOS>BOND
     1    25    28    1
     2    25    24    1
     3    25    26    1
     4    25    27    2
     5     1     4    1
     6     1    24    1
     7     1     2    1
     8     1     3    2
     9     6    11    1
    10     6    12    1
    11    29    36    1
    12    29    37    1
    13     7     9    1
    14     7    13    1
    15     8    10    1
    16     8    14    1
    17    28    37    1
    18     4     5    1
    19    30    33    1
    20    30    38    1
    21    31    34    1
    22    31    39    1
    23    32    35    1
    24    32    40    1
    25    41    42    1
    26    41    43    1
    27    15    19    2
    28    16    22    2
    29    17    12    1
    30    17    19   ar
    31    17    20   ar
    32    18    19   ar
    33    18    22   ar
    34    18    23    1
    35     9    10    1
    36     9    11    1
    37    10    12    1
    38    11     5    1
    39    33    34    1
    40    33    35    1
    41    34    36    1
    42    35    37    1
    43    36    42    1
    44    20    21   ar
    45    21    22   ar
@<TRIPOS>MOLECULE
*****
 43 45 0 0 0
SMALL
GASTEIGER

@<TRIPOS>ATOM
      1 P          22.9201   72.0040   -3.0661 P.3     1  UNL1        0.2189
      2 O          23.7190   70.6003   -3.1603 O.co2   1  UNL1       -0.4371
      3 O          22.7125   72.5229   -1.6736 O.2     1  UNL1       -0.5170
      4 O          21.5749   71.7438   -3.9267 O.3     1  UNL1       -0.3112
      5 C          20.7171   70.6854   -3.5370 C.3     1  UNL1        0.1811
      6 O          18.9248   71.9346   -4.5375 O.3     1  UNL1       -0.3308
      7 O          17.1604   70.7290   -2.4341 O.3     1  UNL1       -0.3794
      8 O          16.5973   69.2074   -4.6260 O.3     1  UNL1       -0.3779
      9 C          18.2642   70.1486   -3.1270 C.3     1  UNL1        0.1713
     10 C          17.8727   69.8110   -4.5505 C.3     1  UNL1        0.1895
     11 C          19.3118   71.2352   -3.3344 C.3     1  UNL1        0.1764
     12 C          17.9151   71.1739   -5.2205 C.3     1  UNL1        0.2383
     13 H          16.4783   70.0538   -2.2898 H       1  UNL1        0.2105
     14 H          16.6218   68.3434   -4.1860 H       1  UNL1        0.2106
     15 O          16.1106   71.6583   -7.3388 O.2     1  UNL1       -0.2464
     16 O          19.3364   70.8191  -10.5218 O.2     1  UNL1       -0.2670
     17 N          18.2567   71.0895   -6.6125 N.ar    1  UNL1       -0.2551
     18 N          17.7183   71.2402   -8.9220 N.ar    1  UNL1       -0.2743
     19 C          17.2761   71.3510   -7.5975 C.ar    1  UNL1        0.3323
     20 C          19.5520   70.7508   -6.9888 C.ar    1  UNL1        0.0869
     21 C          19.9573   70.6482   -8.2562 C.ar    1  UNL1        0.0795
     22 C          18.9944   70.9055   -9.3464 C.ar    1  UNL1        0.2626
     23 H          17.0523   71.4176   -9.6253 H       1  UNL1        0.1734
     24 O          23.7824   72.9781   -4.0254 O.3     1  UNL1       -0.2703
     25 P          23.9365   74.5872   -4.0417 P.3     1  UNL1        0.2208
     26 O          25.5371   74.8075   -3.9565 O.co2   1  UNL1       -0.4371
     27 O          23.1566   75.2909   -2.9692 O.2     1  UNL1       -0.5170
     28 O          23.5450   75.0198   -5.5466 O.3     1  UNL1       -0.2858
     29 O          21.6384   76.0982   -6.4512 O.3     1  UNL1       -0.3258
     30 O          22.2980   73.3156   -9.4299 O.3     1  UNL1       -0.3794
     31 O          22.8933   76.0826   -9.9173 O.3     1  UNL1       -0.3794
     32 O          22.6990   72.5857   -6.6576 O.3     1  UNL1       -0.3775
     33 C          22.6716   74.2418   -8.4062 C.3     1  UNL1        0.1715
     34 C          22.1445   75.6245   -8.7949 C.3     1  UNL1        0.1694
     35 C          22.0664   73.7894   -7.0787 C.3     1  UNL1        0.1967
     36 C          22.2710   76.6136   -7.6285 C.3     1  UNL1        0.1761
     37 C          22.2027   74.8654   -5.9999 C.3     1  UNL1        0.2704
     38 H          22.6795   73.5968  -10.2754 H       1  UNL1        0.2105
     39 H          22.8053   75.4489  -10.6466 H       1  UNL1        0.2105
     40 H          22.6055   71.9124   -7.3489 H       1  UNL1        0.2106
     41 O          21.6997   78.7780   -6.7931 O.3     1  UNL1       -0.3794
     42 C          21.6086   77.9537   -7.9405 C.3     1  UNL1        0.1693
     43 H          21.2823   79.6346   -6.9771 H       1  UNL1        0.2105
@<TRIPOS>UNITY_ATOM_ATTR
2 1
charge -1
26 1
charge -1
@<TRIPOS>BOND
     1    25    28    1
     2    25    24    1
     3    25    26    1
     4    25    27    2
     5     1     4    1
     6     1    24    1
     7     1     2    1
     8     1     3    2
     9     6    11    1
    10     6    12    1
    11    29    36    1
    12    29    37    1
    13     7     9    1
    14     7    13    1
    15     8    10    1
    16     8    14    1
    17    28    37    1
    18     4     5    1
    19    30    33    1
    20    30    38    1
    21    31    34    1
    22    31    39    1
    23    32    35    1
    24    32    40    1
    25    41    42    1
    26    41    43    1
    27    15    19    2
    28    16    22    2
    29    17    12    1
    30    17    19   ar
    31    17    20   ar
    32    18    19   ar
    33    18    22   ar
    34    18    23    1
    35     9    10    1
    36     9    11    1
    37    10    12    1
    38    11     5    1
    39    33    34    1
    40    33    35    1
    41    34    36    1
    42    35    37    1
    43    36    42    1
    44    20    21   ar
    45    21    22   ar
@<TRIPOS>MOLECULE
*****
 43 45 0 0 0
SMALL
GASTEIGER

@<TRIPOS>ATOM
      1 P          21.7031   73.6721   -5.6817 P.3     1  UNL1        0.2189
      2 O          20.5626   74.3017   -4.7225 O.co2   1  UNL1       -0.4371
      3 O          22.8043   74.6177   -6.0621 O.2     1  UNL1       -0.5170
      4 O          20.8676   73.0352   -6.9122 O.3     1  UNL1       -0.3112
      5 C          20.3639   73.9062   -7.9100 C.3     1  UNL1        0.1811
      6 O          19.5634   71.7198   -8.5038 O.3     1  UNL1       -0.3308
      7 O          17.8543   73.1039  -10.5419 O.3     1  UNL1       -0.3794
      8 O          16.0885   72.6072   -8.5239 O.3     1  UNL1       -0.3779
      9 C          18.2224   73.5328   -9.2319 C.3     1  UNL1        0.1713
     10 C          17.4533   72.7512   -8.1873 C.3     1  UNL1        0.1895
     11 C          19.6550   73.0818   -8.9758 C.3     1  UNL1        0.1764
     12 C          18.1957   71.4258   -8.1756 C.3     1  UNL1        0.2383
     13 H          16.9430   73.3808  -10.7284 H       1  UNL1        0.2105
     14 H          15.6602   73.4774   -8.5177 H       1  UNL1        0.2106
     15 O          15.9273   70.1105   -7.1257 O.2     1  UNL1       -0.2464
     16 O          18.1416   69.0029   -3.2384 O.2     1  UNL1       -0.2670
     17 N          18.1517   70.7846   -6.8917 N.ar    1  UNL1       -0.2551
     18 N          17.0318   69.5599   -5.1911 N.ar    1  UNL1       -0.2743
     19 C          16.9627   70.1532   -6.4580 C.ar    1  UNL1        0.3323
     20 C          19.2790   70.7858   -6.0775 C.ar    1  UNL1        0.0869
     21 C          19.3282   70.2166   -4.8714 C.ar    1  UNL1        0.0795
     22 C          18.1282   69.5356   -4.3438 C.ar    1  UNL1        0.2626
     23 H          16.2151   69.1144   -4.8679 H       1  UNL1        0.1734
     24 O          22.1901   72.3682   -4.8598 O.3     1  UNL1       -0.2703
     25 P          23.1172   72.2285   -3.5430 P.3     1  UNL1        0.2208
     26 O          24.3435   73.2401   -3.8436 O.co2   1  UNL1       -0.4371
     27 O          23.5374   70.8210   -3.2328 O.2     1  UNL1       -0.5170
     28 O          22.2730   72.9482   -2.3708 O.3     1  UNL1       -0.2858
     29 O          21.4136   71.1773   -1.0510 O.3     1  UNL1       -0.3258
     30 O          19.8519   74.3770    1.0406 O.3     1  UNL1       -0.3794
     31 O          22.0220   72.8701    2.1667 O.3     1  UNL1       -0.3794
     32 O          19.9661   74.4592   -1.8507 O.3     1  UNL1       -0.3775
     33 C          20.8283   73.6824    0.2598 C.3     1  UNL1        0.1715
     34 C          21.2681   72.4399    1.0367 C.3     1  UNL1        0.1694
     35 C          20.2080   73.2877   -1.0791 C.3     1  UNL1        0.1967
     36 C          22.1098   71.5056    0.1570 C.3     1  UNL1        0.1761
     37 C          21.1039   72.3187   -1.8529 C.3     1  UNL1        0.2704
     38 H          20.2396   74.6308    1.8919 H       1  UNL1        0.2105
     39 H          21.4793   73.4597    2.7136 H       1  UNL1        0.2105
     40 H          19.3977   75.0643   -1.3501 H       1  UNL1        0.2106
     41 O          23.5731   69.6194    0.2564 O.3     1  UNL1       -0.3794
     42 C          22.4265   70.1882    0.8615 C.3     1  UNL1        0.1693
     43 H          23.7866   68.7804    0.6948 H       1  UNL1        0.2105
@<TRIPOS>UNITY_ATOM_ATTR
2 1
charge -1
26 1
charge -1
@<TRIPOS>BOND
     1    25    28    1
     2    25    24    1
     3    25    26    1
     4    25    27    2
     5     1     4    1
     6     1    24    1
     7     1     2    1
     8     1     3    2
     9     6    11    1
    10     6    12    1
    11    29    36    1
    12    29    37    1
    13     7     9    1
    14     7    13    1
    15     8    10    1
    16     8    14    1
    17    28    37    1
    18     4     5    1
    19    30    33    1
    20    30    38    1
    21    31    34    1
    22    31    39    1
    23    32    35    1
    24    32    40    1
    25    41    42    1
    26    41    43    1
    27    15    19    2
    28    16    22    2
    29    17    12    1
    30    17    19   ar
    31    17    20   ar
    32    18    19   ar
    33    18    22   ar
    34    18    23    1
    35     9    10    1
    36     9    11    1
    37    10    12    1
    38    11     5    1
    39    33    34    1
    40    33    35    1
    41    34    36    1
    42    35    37    1
    43    36    42    1
    44    20    21   ar
    45    21    22   ar
@<TRIPOS>MOLECULE
*****
 43 45 0 0 0
SMALL
GASTEIGER

@<TRIPOS>ATOM
      1 P          22.3464   73.3678   -5.2273 P.3     1  UNL1        0.2189
      2 O          22.7165   74.8325   -5.8062 O.co2   1  UNL1       -0.4371
      3 O          23.4914   72.6249   -4.6040 O.2     1  UNL1       -0.5170
      4 O          21.6242   72.6290   -6.4724 O.3     1  UNL1       -0.3112
      5 C          20.8525   73.4110   -7.3673 C.3     1  UNL1        0.1811
      6 O          20.0343   71.1910   -7.7869 O.3     1  UNL1       -0.3308
      7 O          18.5161   72.3858  -10.0800 O.3     1  UNL1       -0.3794
      8 O          16.5967   72.1438   -8.1581 O.3     1  UNL1       -0.3779
      9 C          18.8015   72.9439   -8.7985 C.3     1  UNL1        0.1713
     10 C          17.9374   72.2943   -7.7378 C.3     1  UNL1        0.1895
     11 C          20.1985   72.4929   -8.3908 C.3     1  UNL1        0.1764
     12 C          18.6387   70.9623   -7.5324 C.3     1  UNL1        0.2383
     13 H          17.6289   72.6603  -10.3618 H       1  UNL1        0.2105
     14 H          16.1942   73.0185   -8.2749 H       1  UNL1        0.2106
     15 O          16.3232   69.6600   -6.5730 O.2     1  UNL1       -0.2464
     16 O          18.1580   69.0884   -2.3839 O.2     1  UNL1       -0.2670
     17 N          18.4843   70.4626   -6.1953 N.ar    1  UNL1       -0.2551
     18 N          17.2387   69.3763   -4.4880 N.ar    1  UNL1       -0.2743
     19 C          17.2807   69.8249   -5.8143 C.ar    1  UNL1        0.3323
     20 C          19.5194   70.6066   -5.2779 C.ar    1  UNL1        0.0869
     21 C          19.4631   70.1744   -4.0164 C.ar    1  UNL1        0.0795
     22 C          18.2406   69.4971   -3.5381 C.ar    1  UNL1        0.2626
     23 H          16.4099   68.9293   -4.2000 H       1  UNL1        0.1734
     24 O          21.1169   73.6737   -4.2235 O.3     1  UNL1       -0.2703
     25 P          21.0886   74.3449   -2.7532 P.3     1  UNL1        0.2208
     26 O          19.5656   74.8733   -2.6158 O.co2   1  UNL1       -0.4371
     27 O          22.1326   75.4024   -2.5394 O.2     1  UNL1       -0.5170
     28 O          21.1810   73.0978   -1.7329 O.3     1  UNL1       -0.2858
     29 O          22.8276   73.4903   -0.0743 O.3     1  UNL1       -0.3258
     30 O          21.9623   69.5433    0.7761 O.3     1  UNL1       -0.3794
     31 O          21.0645   71.6077    2.5594 O.3     1  UNL1       -0.3794
     32 O          22.0531   70.4414   -1.9743 O.3     1  UNL1       -0.3775
     33 C          21.6713   70.8812    0.3628 C.3     1  UNL1        0.1715
     34 C          22.0123   71.8248    1.5178 C.3     1  UNL1        0.1694
     35 C          22.5085   71.2160   -0.8702 C.3     1  UNL1        0.1967
     36 C          21.9809   73.2903    1.0636 C.3     1  UNL1        0.1761
     37 C          22.4467   72.7069   -1.2070 C.3     1  UNL1        0.2704
     38 H          21.4336   69.3242    1.5584 H       1  UNL1        0.2105
     39 H          21.0941   70.6785    2.8367 H       1  UNL1        0.2105
     40 H          22.0975   69.4996   -1.7486 H       1  UNL1        0.2106
     41 O          21.5039   74.2701    3.1900 O.3     1  UNL1       -0.3794
     42 C          22.4706   74.2383    2.1561 C.3     1  UNL1        0.1693
     43 H          21.8023   74.8694    3.8925 H       1  UNL1        0.2105
@<TRIPOS>UNITY_ATOM_ATTR
2 1
charge -1
26 1
charge -1
@<TRIPOS>BOND
     1    25    28    1
     2    25    24    1
     3    25    26    1
     4    25    27    2
     5     1     4    1
     6     1    24    1
     7     1     2    1
     8     1     3    2
     9     6    11    1
    10     6    12    1
    11    29    36    1
    12    29    37    1
    13     7     9    1
    14     7    13    1
    15     8    10    1
    16     8    14    1
    17    28    37    1
    18     4     5    1
    19    30    33    1
    20    30    38    1
    21    31    34    1
    22    31    39    1
    23    32    35    1
    24    32    40    1
    25    41    42    1
    26    41    43    1
    27    15    19    2
    28    16    22    2
    29    17    12    1
    30    17    19   ar
    31    17    20   ar
    32    18    19   ar
    33    18    22   ar
    34    18    23    1
    35     9    10    1
    36     9    11    1
    37    10    12    1
    38    11     5    1
    39    33    34    1
    40    33    35    1
    41    34    36    1
    42    35    37    1
    43    36    42    1
    44    20    21   ar
    45    21    22   ar
@<TRIPOS>MOLECULE
*****
 43 45 0 0 0
SMALL
GASTEIGER

@<TRIPOS>ATOM
      1 P          22.8165   72.0460   -3.1873 P.3     1  UNL1        0.2189
      2 O          23.5122   70.5856   -3.2122 O.co2   1  UNL1       -0.4371
      3 O          23.7704   73.2010   -3.1008 O.2     1  UNL1       -0.5170
      4 O          21.7321   71.9393   -1.9912 O.3     1  UNL1       -0.3112
      5 C          22.0965   72.4074   -0.7044 C.3     1  UNL1        0.1811
      6 O          21.1181   72.7498    1.4633 O.3     1  UNL1       -0.3308
      7 O          19.0234   74.3688    0.0554 O.3     1  UNL1       -0.3794
      8 O          20.6608   76.2876    1.0917 O.3     1  UNL1       -0.3779
      9 C          20.4178   74.2581   -0.2250 C.3     1  UNL1        0.1713
     10 C          21.2234   75.0237    0.8038 C.3     1  UNL1        0.1895
     11 C          20.8386   72.8195    0.0479 C.3     1  UNL1        0.1764
     12 C          21.1877   74.0826    1.9959 C.3     1  UNL1        0.2383
     13 H          18.7313   75.2791   -0.1119 H       1  UNL1        0.2105
     14 H          20.7071   76.8496    0.3026 H       1  UNL1        0.2106
     15 O          23.7429   74.8154    1.0409 O.2     1  UNL1       -0.2464
     16 O          25.6100   74.4822    5.2415 O.2     1  UNL1       -0.2670
     17 N          22.3593   74.1956    2.8182 N.ar    1  UNL1       -0.2551
     18 N          24.6704   74.6491    3.1333 N.ar    1  UNL1       -0.2743
     19 C          23.5946   74.5694    2.2398 C.ar    1  UNL1        0.3323
     20 C          22.2762   73.9372    4.1821 C.ar    1  UNL1        0.0869
     21 C          23.3118   74.0164    5.0203 C.ar    1  UNL1        0.0795
     22 C          24.6383   74.4007    4.4964 C.ar    1  UNL1        0.2626
     23 H          25.5412   74.9074    2.7528 H       1  UNL1        0.1734
     24 O          21.8951   72.0325   -4.5154 O.3     1  UNL1       -0.2703
     25 P          21.5984   73.1812   -5.6133 P.3     1  UNL1        0.2208
     26 O          22.8372   73.0381   -6.6440 O.co2   1  UNL1       -0.4371
     27 O          21.4297   74.5563   -5.0350 O.2     1  UNL1       -0.5170
     28 O          20.3194   72.6398   -6.4355 O.3     1  UNL1       -0.2858
     29 O          19.2749   70.5247   -6.2074 O.3     1  UNL1       -0.3258
     30 O          18.5563   71.1861  -10.2195 O.3     1  UNL1       -0.3794
     31 O          16.3918   71.3750   -8.3414 O.3     1  UNL1       -0.3794
     32 O          21.0837   71.9831   -9.0546 O.3     1  UNL1       -0.3775
     33 C          18.7226   71.5544   -8.8476 C.3     1  UNL1        0.1715
     34 C          17.6645   70.8195   -8.0222 C.3     1  UNL1        0.1694
     35 C          20.1272   71.1628   -8.3924 C.3     1  UNL1        0.1967
     36 C          17.9438   70.9524   -6.5190 C.3     1  UNL1        0.1761
     37 C          20.2838   71.2846   -6.8755 C.3     1  UNL1        0.2704
     38 H          17.6666   71.4325  -10.5149 H       1  UNL1        0.2105
     39 H          16.2280   71.2851   -9.2934 H       1  UNL1        0.2105
     40 H          20.9744   71.8969  -10.0141 H       1  UNL1        0.2106
     41 O          16.2293   69.2887   -6.5579 O.3     1  UNL1       -0.3794
     42 C          16.9935   70.0980   -5.6830 C.3     1  UNL1        0.1693
     43 H          15.6201   68.7391   -6.0397 H       1  UNL1        0.2105
@<TRIPOS>UNITY_ATOM_ATTR
2 1
charge -1
26 1
charge -1
@<TRIPOS>BOND
     1    25    28    1
     2    25    24    1
     3    25    26    1
     4    25    27    2
     5     1     4    1
     6     1    24    1
     7     1     2    1
     8     1     3    2
     9     6    11    1
    10     6    12    1
    11    29    36    1
    12    29    37    1
    13     7     9    1
    14     7    13    1
    15     8    10    1
    16     8    14    1
    17    28    37    1
    18     4     5    1
    19    30    33    1
    20    30    38    1
    21    31    34    1
    22    31    39    1
    23    32    35    1
    24    32    40    1
    25    41    42    1
    26    41    43    1
    27    15    19    2
    28    16    22    2
    29    17    12    1
    30    17    19   ar
    31    17    20   ar
    32    18    19   ar
    33    18    22   ar
    34    18    23    1
    35     9    10    1
    36     9    11    1
    37    10    12    1
    38    11     5    1
    39    33    34    1
    40    33    35    1
    41    34    36    1
    42    35    37    1
    43    36    42    1
    44    20    21   ar
    45    21    22   ar
@<TRIPOS>MOLECULE
*****
 43 45 0 0 0
SMALL
GASTEIGER

@<TRIPOS>ATOM
      1 P          21.8135   74.7859   -5.8476 P.3     1  UNL1        0.2189
      2 O          20.6062   74.7004   -4.7740 O.co2   1  UNL1       -0.4371
      3 O          22.3469   76.1667   -6.0929 O.2     1  UNL1       -0.5170
      4 O          21.2333   74.0156   -7.1468 O.3     1  UNL1       -0.3112
      5 C          19.9957   74.4425   -7.6891 C.3     1  UNL1        0.1811
      6 O          19.6092   72.1141   -8.1395 O.3     1  UNL1       -0.3308
      7 O          17.9196   73.0320  -10.4402 O.3     1  UNL1       -0.3794
      8 O          16.0585   72.4154   -8.5448 O.3     1  UNL1       -0.3779
      9 C          18.0826   73.6187   -9.1501 C.3     1  UNL1        0.1713
     10 C          17.3433   72.8077   -8.1064 C.3     1  UNL1        0.1895
     11 C          19.5348   73.4306   -8.7291 C.3     1  UNL1        0.1764
     12 C          18.2779   71.6271   -7.9046 C.3     1  UNL1        0.2383
     13 H          16.9998   73.1400  -10.7305 H       1  UNL1        0.2105
     14 H          15.5016   73.2013   -8.6585 H       1  UNL1        0.2106
     15 O          16.2019   69.9565   -6.9679 O.2     1  UNL1       -0.2464
     16 O          18.1015   69.6351   -2.7810 O.2     1  UNL1       -0.2670
     17 N          18.2050   71.0921   -6.5742 N.ar    1  UNL1       -0.2551
     18 N          17.1495   69.7977   -4.8840 N.ar    1  UNL1       -0.2743
     19 C          17.1197   70.2640   -6.2045 C.ar    1  UNL1        0.3323
     20 C          19.2027   71.3894   -5.6521 C.ar    1  UNL1        0.0869
     21 C          19.2158   70.9378   -4.3963 C.ar    1  UNL1        0.0795
     22 C          18.1181   70.0663   -3.9298 C.ar    1  UNL1        0.2626
     23 H          16.4034   69.2193   -4.6038 H       1  UNL1        0.1734
     24 O          22.8974   73.7407   -5.2596 O.3     1  UNL1       -0.2703
     25 P          23.2819   73.3536   -3.7380 P.3     1  UNL1        0.2208
     26 O          23.3658   71.7384   -3.7758 O.co2   1  UNL1       -0.4371
     27 O          22.3380   73.9007   -2.7066 O.2     1  UNL1       -0.5170
     28 O          24.8123   73.8374   -3.5677 O.3     1  UNL1       -0.2858
     29 O          24.5588   76.0159   -2.6695 O.3     1  UNL1       -0.3258
     30 O          28.6740   75.7129   -2.5141 O.3     1  UNL1       -0.3794
     31 O          27.1500   75.5845   -0.0833 O.3     1  UNL1       -0.3794
     32 O          27.2290   74.6098   -4.7669 O.3     1  UNL1       -0.3775
     33 C          27.3286   75.2332   -2.4425 C.3     1  UNL1        0.1715
     34 C          26.6049   75.9988   -1.3330 C.3     1  UNL1        0.1694
     35 C          26.6443   75.4630   -3.7887 C.3     1  UNL1        0.1967
     36 C          25.0939   75.7333   -1.3713 C.3     1  UNL1        0.1761
     37 C          25.1366   75.2185   -3.7050 C.3     1  UNL1        0.2704
     38 H          29.1142   75.5695   -1.6626 H       1  UNL1        0.2105
     39 H          28.1046   75.7572   -0.0724 H       1  UNL1        0.2105
     40 H          28.1833   74.7745   -4.8105 H       1  UNL1        0.2106
     41 O          23.3664   77.3588   -1.0847 O.3     1  UNL1       -0.3794
     42 C          24.3342   76.6072   -0.3757 C.3     1  UNL1        0.1693
     43 H          22.8748   77.9195   -0.4637 H       1  UNL1        0.2105
@<TRIPOS>UNITY_ATOM_ATTR
2 1
charge -1
26 1
charge -1
@<TRIPOS>BOND
     1    25    28    1
     2    25    24    1
     3    25    26    1
     4    25    27    2
     5     1     4    1
     6     1    24    1
     7     1     2    1
     8     1     3    2
     9     6    11    1
    10     6    12    1
    11    29    36    1
    12    29    37    1
    13     7     9    1
    14     7    13    1
    15     8    10    1
    16     8    14    1
    17    28    37    1
    18     4     5    1
    19    30    33    1
    20    30    38    1
    21    31    34    1
    22    31    39    1
    23    32    35    1
    24    32    40    1
    25    41    42    1
    26    41    43    1
    27    15    19    2
    28    16    22    2
    29    17    12    1
    30    17    19   ar
    31    17    20   ar
    32    18    19   ar
    33    18    22   ar
    34    18    23    1
    35     9    10    1
    36     9    11    1
    37    10    12    1
    38    11     5    1
    39    33    34    1
    40    33    35    1
    41    34    36    1
    42    35    37    1
    43    36    42    1
    44    20    21   ar
    45    21    22   ar
@<TRIPOS>MOLECULE
*****
 43 45 0 0 0
SMALL
GASTEIGER

@<TRIPOS>ATOM
      1 P          22.2708   73.7627   -4.1970 P.3     1  UNL1        0.2189
      2 O          21.9990   75.2900   -4.6562 O.co2   1  UNL1       -0.4371
      3 O          23.5550   73.1694   -4.6974 O.2     1  UNL1       -0.5170
      4 O          20.9210   72.9814   -4.6279 O.3     1  UNL1       -0.3112
      5 C          19.6715   73.5976   -4.3696 C.3     1  UNL1        0.1811
      6 O          17.9121   72.0851   -4.9945 O.3     1  UNL1       -0.3308
      7 O          18.4664   70.6688   -2.4104 O.3     1  UNL1       -0.3794
      8 O          19.7334   69.0897   -4.2374 O.3     1  UNL1       -0.3779
      9 C          19.3782   71.3062   -3.3035 C.3     1  UNL1        0.1713
     10 C          19.5775   70.4603   -4.5438 C.3     1  UNL1        0.1895
     11 C          18.6930   72.5438   -3.8693 C.3     1  UNL1        0.1764
     12 C          18.3062   70.7436   -5.3260 C.3     1  UNL1        0.2383
     13 H          18.8820   69.8755   -2.0361 H       1  UNL1        0.2105
     14 H          20.5560   68.9609   -3.7399 H       1  UNL1        0.2106
     15 O          16.2479   70.2532   -7.1970 O.2     1  UNL1       -0.2464
     16 O          19.1845   70.4156  -10.7454 O.2     1  UNL1       -0.2670
     17 N          18.5047   70.6530   -6.7451 N.ar    1  UNL1       -0.2551
     18 N          17.7117   70.3346   -8.9623 N.ar    1  UNL1       -0.2743
     19 C          17.4042   70.4026   -7.5975 C.ar    1  UNL1        0.3323
     20 C          19.7792   70.8123   -7.2781 C.ar    1  UNL1        0.0869
     21 C          20.0559   70.7433   -8.5819 C.ar    1  UNL1        0.0795
     22 C          18.9622   70.4848   -9.5406 C.ar    1  UNL1        0.2626
     23 H          16.9608   70.1606   -9.5752 H       1  UNL1        0.1734
     24 O          22.1478   73.8398   -2.5870 O.3     1  UNL1       -0.2703
     25 P          22.1039   75.1076   -1.5853 P.3     1  UNL1        0.2208
     26 O          20.6060   75.6860   -1.7842 O.co2   1  UNL1       -0.4371
     27 O          23.1926   76.1146   -1.8190 O.2     1  UNL1       -0.5170
     28 O          22.0978   74.4601   -0.1069 O.3     1  UNL1       -0.2858
     29 O          20.9586   72.3839   -0.1975 O.3     1  UNL1       -0.3258
     30 O          21.6016   72.6065    3.8753 O.3     1  UNL1       -0.3794
     31 O          23.1153   70.7418    2.3007 O.3     1  UNL1       -0.3794
     32 O          20.9282   74.9963    2.3871 O.3     1  UNL1       -0.3775
     33 C          21.9161   72.8022    2.4940 C.3     1  UNL1        0.1715
     34 C          21.9674   71.4321    1.8150 C.3     1  UNL1        0.1694
     35 C          20.8396   73.6784    1.8562 C.3     1  UNL1        0.1967
     36 C          22.0346   71.5726    0.2883 C.3     1  UNL1        0.1761
     37 C          20.9676   73.7110    0.3322 C.3     1  UNL1        0.2704
     38 H          22.2815   72.0513    4.2863 H       1  UNL1        0.2105
     39 H          23.0607   70.6602    3.2658 H       1  UNL1        0.2105
     40 H          20.8455   74.9621    3.3524 H       1  UNL1        0.2106
     41 O          21.6546   69.2290    0.5561 O.3     1  UNL1       -0.3794
     42 C          21.9276   70.2217   -0.4157 C.3     1  UNL1        0.1693
     43 H          21.5835   68.3638    0.1224 H       1  UNL1        0.2105
@<TRIPOS>UNITY_ATOM_ATTR
2 1
charge -1
26 1
charge -1
@<TRIPOS>BOND
     1    25    28    1
     2    25    24    1
     3    25    26    1
     4    25    27    2
     5     1     4    1
     6     1    24    1
     7     1     2    1
     8     1     3    2
     9     6    11    1
    10     6    12    1
    11    29    36    1
    12    29    37    1
    13     7     9    1
    14     7    13    1
    15     8    10    1
    16     8    14    1
    17    28    37    1
    18     4     5    1
    19    30    33    1
    20    30    38    1
    21    31    34    1
    22    31    39    1
    23    32    35    1
    24    32    40    1
    25    41    42    1
    26    41    43    1
    27    15    19    2
    28    16    22    2
    29    17    12    1
    30    17    19   ar
    31    17    20   ar
    32    18    19   ar
    33    18    22   ar
    34    18    23    1
    35     9    10    1
    36     9    11    1
    37    10    12    1
    38    11     5    1
    39    33    34    1
    40    33    35    1
    41    34    36    1
    42    35    37    1
    43    36    42    1
    44    20    21   ar
    45    21    22   ar
@<TRIPOS>MOLECULE
*****
 43 45 0 0 0
SMALL
GASTEIGER

@<TRIPOS>ATOM
      1 P          21.6178   70.5688   -0.4619 P.3     1  UNL1        0.2189
      2 O          23.0905   70.7889   -1.0944 O.co2   1  UNL1       -0.4371
      3 O          21.5334   69.5044    0.5924 O.2     1  UNL1       -0.5170
      4 O          20.6681   70.3545   -1.7542 O.3     1  UNL1       -0.3112
      5 C          20.4313   71.4589   -2.6098 C.3     1  UNL1        0.1811
      6 O          20.8459   71.1309   -4.9538 O.3     1  UNL1       -0.3308
      7 O          23.3937   72.6528   -4.5250 O.3     1  UNL1       -0.3794
      8 O          21.7576   74.5326   -5.6325 O.3     1  UNL1       -0.3779
      9 C          22.1158   72.8441   -3.9202 C.3     1  UNL1        0.1713
     10 C          21.1575   73.4798   -4.9056 C.3     1  UNL1        0.1895
     11 C          21.4881   71.4724   -3.7059 C.3     1  UNL1        0.1764
     12 C          20.7830   72.3002   -5.7867 C.3     1  UNL1        0.2383
     13 H          23.8142   73.5151   -4.6714 H       1  UNL1        0.2105
     14 H          21.9773   75.2588   -5.0283 H       1  UNL1        0.2106
     15 O          20.1437   73.6876   -8.1625 O.2     1  UNL1       -0.2464
     16 O          15.6629   72.6879   -7.7573 O.2     1  UNL1       -0.2670
     17 N          19.4574   72.4181   -6.3255 N.ar    1  UNL1       -0.2551
     18 N          17.9131   73.1886   -7.9589 N.ar    1  UNL1       -0.2743
     19 C          19.2437   73.1376   -7.5243 C.ar    1  UNL1        0.3323
     20 C          18.3863   71.8239   -5.6670 C.ar    1  UNL1        0.0869
     21 C          17.1232   71.8829   -6.0939 C.ar    1  UNL1        0.0795
     22 C          16.8141   72.6155   -7.3388 C.ar    1  UNL1        0.2626
     23 H          17.7402   73.6848   -8.7918 H       1  UNL1        0.1734
     24 O          21.2143   72.0501    0.0439 O.3     1  UNL1       -0.2703
     25 P          22.0358   73.4420    0.0153 P.3     1  UNL1        0.2208
     26 O          21.0106   74.4631   -0.7084 O.co2   1  UNL1       -0.4371
     27 O          23.3828   73.3481   -0.6408 O.2     1  UNL1       -0.5170
     28 O          22.0739   73.9255    1.5547 O.3     1  UNL1       -0.2858
     29 O          23.9193   73.9848    3.0404 O.3     1  UNL1       -0.3258
     30 O          20.9288   73.0761    5.7389 O.3     1  UNL1       -0.3794
     31 O          22.0865   75.7043    5.7373 O.3     1  UNL1       -0.3794
     32 O          20.8951   71.8975    3.0952 O.3     1  UNL1       -0.3775
     33 C          21.4946   73.6960    4.5809 C.3     1  UNL1        0.1715
     34 C          22.6444   74.5981    5.0334 C.3     1  UNL1        0.1694
     35 C          22.0030   72.6119    3.6325 C.3     1  UNL1        0.1967
     36 C          23.4687   75.0880    3.8352 C.3     1  UNL1        0.1761
     37 C          22.8516   73.2010    2.5042 C.3     1  UNL1        0.2704
     38 H          20.6036   73.7590    6.3450 H       1  UNL1        0.2105
     39 H          21.5681   75.3813    6.4910 H       1  UNL1        0.2105
     40 H          20.3661   71.5292    3.8193 H       1  UNL1        0.2106
     41 O          24.8962   75.6627    5.6631 O.3     1  UNL1       -0.3794
     42 C          24.7118   75.8593    4.2732 C.3     1  UNL1        0.1693
     43 H          25.6841   76.1477    5.9559 H       1  UNL1        0.2105
@<TRIPOS>UNITY_ATOM_ATTR
2 1
charge -1
26 1
charge -1
@<TRIPOS>BOND
     1    25    28    1
     2    25    24    1
     3    25    26    1
     4    25    27    2
     5     1     4    1
     6     1    24    1
     7     1     2    1
     8     1     3    2
     9     6    11    1
    10     6    12    1
    11    29    36    1
    12    29    37    1
    13     7     9    1
    14     7    13    1
    15     8    10    1
    16     8    14    1
    17    28    37    1
    18     4     5    1
    19    30    33    1
    20    30    38    1
    21    31    34    1
    22    31    39    1
    23    32    35    1
    24    32    40    1
    25    41    42    1
    26    41    43    1
    27    15    19    2
    28    16    22    2
    29    17    12    1
    30    17    19   ar
    31    17    20   ar
    32    18    19   ar
    33    18    22   ar
    34    18    23    1
    35     9    10    1
    36     9    11    1
    37    10    12    1
    38    11     5    1
    39    33    34    1
    40    33    35    1
    41    34    36    1
    42    35    37    1
    43    36    42    1
    44    20    21   ar
    45    21    22   ar
@<TRIPOS>MOLECULE
*****
 43 45 0 0 0
SMALL
GASTEIGER

@<TRIPOS>ATOM
      1 P          20.2173   74.1926   -4.3766 P.3     1  UNL1        0.2189
      2 O          18.6706   73.8110   -4.0944 O.co2   1  UNL1       -0.4371
      3 O          20.6558   75.5147   -3.8188 O.2     1  UNL1       -0.5170
      4 O          20.3745   74.0184   -5.9775 O.3     1  UNL1       -0.3112
      5 C          19.3338   74.4919   -6.8145 C.3     1  UNL1        0.1811
      6 O          19.5528   72.2344   -7.6078 O.3     1  UNL1       -0.3308
      7 O          17.8882   73.0940   -9.9490 O.3     1  UNL1       -0.3794
      8 O          16.0785   71.7906   -8.3796 O.3     1  UNL1       -0.3779
      9 C          17.7996   73.4958   -8.5830 C.3     1  UNL1        0.1713
     10 C          17.1920   72.3885   -7.7475 C.3     1  UNL1        0.1895
     11 C          19.2150   73.5755   -8.0246 C.3     1  UNL1        0.1764
     12 C          18.3615   71.4309   -7.5949 C.3     1  UNL1        0.2383
     13 H          16.9963   73.0365  -10.3274 H       1  UNL1        0.2105
     14 H          15.3614   72.4395   -8.4533 H       1  UNL1        0.2106
     15 O          16.1559   69.8784   -6.7566 O.2     1  UNL1       -0.2464
     16 O          18.2720   68.6491   -2.8512 O.2     1  UNL1       -0.2670
     17 N          18.3092   70.6943   -6.3636 N.ar    1  UNL1       -0.2551
     18 N          17.2114   69.2674   -4.8128 N.ar    1  UNL1       -0.2743
     19 C          17.1539   69.9469   -6.0363 C.ar    1  UNL1        0.3323
     20 C          19.3955   70.7173   -5.4957 C.ar    1  UNL1        0.0869
     21 C          19.4340   70.0649   -4.3320 C.ar    1  UNL1        0.0795
     22 C          18.2674   69.2604   -3.9152 C.ar    1  UNL1        0.2626
     23 H          16.4177   68.7404   -4.5636 H       1  UNL1        0.1734
     24 O          21.0190   72.9165   -3.7919 O.3     1  UNL1       -0.2703
     25 P          22.3642   72.8255   -2.9001 P.3     1  UNL1        0.2208
     26 O          22.8819   74.3576   -2.8523 O.co2   1  UNL1       -0.4371
     27 O          23.3781   71.8450   -3.4142 O.2     1  UNL1       -0.5170
     28 O          21.8421   72.5247   -1.4028 O.3     1  UNL1       -0.2858
     29 O          23.5396   73.3016    0.0570 O.3     1  UNL1       -0.3258
     30 O          20.8944   71.8108    2.8554 O.3     1  UNL1       -0.3794
     31 O          21.1958   74.6517    2.5615 O.3     1  UNL1       -0.3794
     32 O          21.2949   70.4072    0.3555 O.3     1  UNL1       -0.3775
     33 C          21.2763   72.4486    1.6336 C.3     1  UNL1        0.1715
     34 C          22.0836   73.7016    1.9788 C.3     1  UNL1        0.1694
     35 C          22.1171   71.4786    0.8057 C.3     1  UNL1        0.1967
     36 C          22.7524   74.2913    0.7298 C.3     1  UNL1        0.1761
     37 C          22.7768   72.1770   -0.3847 C.3     1  UNL1        0.2704
     38 H          20.3598   72.4212    3.3855 H       1  UNL1        0.2105
     39 H          20.7797   74.2667    3.3489 H       1  UNL1        0.2105
     40 H          20.8833   69.9731    1.1184 H       1  UNL1        0.2106
     41 O          24.5683   75.0234    2.0994 O.3     1  UNL1       -0.3794
     42 C          23.6887   75.4475    1.0743 C.3     1  UNL1        0.1693
     43 H          25.1703   75.7490    2.3287 H       1  UNL1        0.2105
@<TRIPOS>UNITY_ATOM_ATTR
2 1
charge -1
26 1
charge -1
@<TRIPOS>BOND
     1    25    28    1
     2    25    24    1
     3    25    26    1
     4    25    27    2
     5     1     4    1
     6     1    24    1
     7     1     2    1
     8     1     3    2
     9     6    11    1
    10     6    12    1
    11    29    36    1
    12    29    37    1
    13     7     9    1
    14     7    13    1
    15     8    10    1
    16     8    14    1
    17    28    37    1
    18     4     5    1
    19    30    33    1
    20    30    38    1
    21    31    34    1
    22    31    39    1
    23    32    35    1
    24    32    40    1
    25    41    42    1
    26    41    43    1
    27    15    19    2
    28    16    22    2
    29    17    12    1
    30    17    19   ar
    31    17    20   ar
    32    18    19   ar
    33    18    22   ar
    34    18    23    1
    35     9    10    1
    36     9    11    1
    37    10    12    1
    38    11     5    1
    39    33    34    1
    40    33    35    1
    41    34    36    1
    42    35    37    1
    43    36    42    1
    44    20    21   ar
    45    21    22   ar
@<TRIPOS>MOLECULE
*****
 43 45 0 0 0
SMALL
GASTEIGER

@<TRIPOS>ATOM
      1 P          22.6013   72.8989   -3.1237 P.3     1  UNL1        0.2189
      2 O          21.5161   73.9882   -3.6269 O.co2   1  UNL1       -0.4371
      3 O          23.7154   72.6213   -4.0898 O.2     1  UNL1       -0.5170
      4 O          21.7025   71.6214   -2.7018 O.3     1  UNL1       -0.3112
      5 C          20.8808   71.0182   -3.6860 C.3     1  UNL1        0.1811
      6 O          18.9693   72.0296   -4.7334 O.3     1  UNL1       -0.3308
      7 O          17.3658   70.9098   -2.4605 O.3     1  UNL1       -0.3794
      8 O          16.8547   69.1443   -4.4751 O.3     1  UNL1       -0.3779
      9 C          18.4893   70.3466   -3.1356 C.3     1  UNL1        0.1713
     10 C          18.0821   69.8438   -4.5050 C.3     1  UNL1        0.1895
     11 C          19.4444   71.4812   -3.4844 C.3     1  UNL1        0.1764
     12 C          18.0004   71.1341   -5.3028 C.3     1  UNL1        0.2383
     13 H          16.7418   70.2040   -2.2273 H       1  UNL1        0.2105
     14 H          16.9582   68.3315   -3.9560 H       1  UNL1        0.2106
     15 O          16.1026   70.4172   -7.2681 O.2     1  UNL1       -0.2464
     16 O          19.2852   70.4121  -10.6016 O.2     1  UNL1       -0.2670
     17 N          18.3055   70.9392   -6.6922 N.ar    1  UNL1       -0.2551
     18 N          17.6888   70.4154   -8.9264 N.ar    1  UNL1       -0.2743
     19 C          17.2796   70.5793   -7.5968 C.ar    1  UNL1        0.3323
     20 C          19.6098   71.1053   -7.1451 C.ar    1  UNL1        0.0869
     21 C          19.9839   70.9440   -8.4161 C.ar    1  UNL1        0.0795
     22 C          18.9728   70.5679   -9.4252 C.ar    1  UNL1        0.2626
     23 H          16.9912   70.1643   -9.5745 H       1  UNL1        0.1734
     24 O          23.0792   73.4935   -1.6986 O.3     1  UNL1       -0.2703
     25 P          23.8334   74.8731   -1.3230 P.3     1  UNL1        0.2208
     26 O          24.1644   74.6984    0.2510 O.co2   1  UNL1       -0.4371
     27 O          23.0538   76.1115   -1.6581 O.2     1  UNL1       -0.5170
     28 O          25.2677   74.7670   -2.0554 O.3     1  UNL1       -0.2858
     29 O          27.0790   76.2795   -1.8351 O.3     1  UNL1       -0.3258
     30 O          27.7274   75.0347   -5.7186 O.3     1  UNL1       -0.3794
     31 O          29.4848   74.1400   -3.6306 O.3     1  UNL1       -0.3794
     32 O          25.0250   75.4481   -4.7670 O.3     1  UNL1       -0.3775
     33 C          27.3306   74.8880   -4.3524 C.3     1  UNL1        0.1715
     34 C          28.5398   75.1938   -3.4663 C.3     1  UNL1        0.1694
     35 C          26.1887   75.8588   -4.0573 C.3     1  UNL1        0.1967
     36 C          28.1295   75.3186   -1.9928 C.3     1  UNL1        0.1761
     37 C          25.8932   75.9446   -2.5588 C.3     1  UNL1        0.2704
     38 H          28.4519   74.4207   -5.9126 H       1  UNL1        0.2105
     39 H          29.7352   74.0715   -4.5654 H       1  UNL1        0.2105
     40 H          25.2250   75.3979   -5.7143 H       1  UNL1        0.2106
     41 O          29.9992   74.6349   -0.6717 O.3     1  UNL1       -0.3794
     42 C          29.2900   75.7779   -1.1129 C.3     1  UNL1        0.1693
     43 H          30.7410   74.9120   -0.1107 H       1  UNL1        0.2105
@<TRIPOS>UNITY_ATOM_ATTR
2 1
charge -1
26 1
charge -1
@<TRIPOS>BOND
     1    25    28    1
     2    25    24    1
     3    25    26    1
     4    25    27    2
     5     1     4    1
     6     1    24    1
     7     1     2    1
     8     1     3    2
     9     6    11    1
    10     6    12    1
    11    29    36    1
    12    29    37    1
    13     7     9    1
    14     7    13    1
    15     8    10    1
    16     8    14    1
    17    28    37    1
    18     4     5    1
    19    30    33    1
    20    30    38    1
    21    31    34    1
    22    31    39    1
    23    32    35    1
    24    32    40    1
    25    41    42    1
    26    41    43    1
    27    15    19    2
    28    16    22    2
    29    17    12    1
    30    17    19   ar
    31    17    20   ar
    32    18    19   ar
    33    18    22   ar
    34    18    23    1
    35     9    10    1
    36     9    11    1
    37    10    12    1
    38    11     5    1
    39    33    34    1
    40    33    35    1
    41    34    36    1
    42    35    37    1
    43    36    42    1
    44    20    21   ar
    45    21    22   ar
@<TRIPOS>MOLECULE
*****
 43 45 0 0 0
SMALL
GASTEIGER

@<TRIPOS>ATOM
      1 P          22.4028   71.5852   -2.3920 P.3     1  UNL1        0.2189
      2 O          22.0922   73.0153   -3.0816 O.co2   1  UNL1       -0.4371
      3 O          23.4230   70.7464   -3.1041 O.2     1  UNL1       -0.5170
      4 O          20.9414   70.9139   -2.2144 O.3     1  UNL1       -0.3112
      5 C          20.3190   70.3388   -3.3500 C.3     1  UNL1        0.1811
      6 O          19.0805   72.1630   -4.3050 O.3     1  UNL1       -0.3308
      7 O          16.6456   70.4491   -3.9518 O.3     1  UNL1       -0.3794
      8 O          17.2022   70.1515   -6.6048 O.3     1  UNL1       -0.3779
      9 C          17.9750   70.0669   -4.3011 C.3     1  UNL1        0.1713
     10 C          18.2738   70.4535   -5.7346 C.3     1  UNL1        0.1895
     11 C          18.9382   70.9560   -3.5245 C.3     1  UNL1        0.1764
     12 C          18.5247   71.9469   -5.6124 C.3     1  UNL1        0.2383
     13 H          16.0124   69.8948   -4.4353 H       1  UNL1        0.2105
     14 H          17.0824   69.1900   -6.6489 H       1  UNL1        0.2106
     15 O          17.7919   72.8250   -8.1950 O.2     1  UNL1       -0.2464
     16 O          22.1614   73.7748   -9.3113 O.2     1  UNL1       -0.2670
     17 N          19.4504   72.4292   -6.5982 N.ar    1  UNL1       -0.2551
     18 N          19.9682   73.2974   -8.7487 N.ar    1  UNL1       -0.2743
     19 C          18.9796   72.8453   -7.8653 C.ar    1  UNL1        0.3323
     20 C          20.8084   72.4862   -6.3043 C.ar    1  UNL1        0.0869
     21 C          21.7385   72.9186   -7.1582 C.ar    1  UNL1        0.0795
     22 C          21.3302   73.3717   -8.5036 C.ar    1  UNL1        0.2626
     23 H          19.6636   73.5921   -9.6376 H       1  UNL1        0.1734
     24 O          22.8028   71.9905   -0.8791 O.3     1  UNL1       -0.2703
     25 P          21.8875   72.2467    0.4284 P.3     1  UNL1        0.2208
     26 O          21.6724   70.7595    1.0281 O.co2   1  UNL1       -0.4371
     27 O          20.6145   72.9930    0.1519 O.2     1  UNL1       -0.5170
     28 O          22.8729   72.9721    1.4810 O.3     1  UNL1       -0.2858
     29 O          22.0729   74.1994    3.3439 O.3     1  UNL1       -0.3258
     30 O          25.7351   76.0450    2.8612 O.3     1  UNL1       -0.3794
     31 O          25.3229   74.2713    5.0820 O.3     1  UNL1       -0.3794
     32 O          24.1964   75.2600    0.5383 O.3     1  UNL1       -0.3775
     33 C          24.8160   74.9494    2.8450 C.3     1  UNL1        0.1715
     34 C          24.2672   74.7629    4.2609 C.3     1  UNL1        0.1694
     35 C          23.6849   75.2610    1.8668 C.3     1  UNL1        0.1967
     36 C          23.0830   73.7869    4.2720 C.3     1  UNL1        0.1761
     37 C          22.5363   74.2587    1.9935 C.3     1  UNL1        0.2704
     38 H          26.4560   75.8533    3.4800 H       1  UNL1        0.2105
     39 H          26.0646   74.8965    5.0659 H       1  UNL1        0.2105
     40 H          24.9226   75.8987    0.4710 H       1  UNL1        0.2106
     41 O          21.2099   72.9841    5.5194 O.3     1  UNL1       -0.3794
     42 C          22.4206   73.7069    5.6457 C.3     1  UNL1        0.1693
     43 H          20.7775   72.9248    6.3861 H       1  UNL1        0.2105
@<TRIPOS>UNITY_ATOM_ATTR
2 1
charge -1
26 1
charge -1
@<TRIPOS>BOND
     1    25    28    1
     2    25    24    1
     3    25    26    1
     4    25    27    2
     5     1     4    1
     6     1    24    1
     7     1     2    1
     8     1     3    2
     9     6    11    1
    10     6    12    1
    11    29    36    1
    12    29    37    1
    13     7     9    1
    14     7    13    1
    15     8    10    1
    16     8    14    1
    17    28    37    1
    18     4     5    1
    19    30    33    1
    20    30    38    1
    21    31    34    1
    22    31    39    1
    23    32    35    1
    24    32    40    1
    25    41    42    1
    26    41    43    1
    27    15    19    2
    28    16    22    2
    29    17    12    1
    30    17    19   ar
    31    17    20   ar
    32    18    19   ar
    33    18    22   ar
    34    18    23    1
    35     9    10    1
    36     9    11    1
    37    10    12    1
    38    11     5    1
    39    33    34    1
    40    33    35    1
    41    34    36    1
    42    35    37    1
    43    36    42    1
    44    20    21   ar
    45    21    22   ar
@<TRIPOS>MOLECULE
*****
 43 45 0 0 0
SMALL
GASTEIGER

@<TRIPOS>ATOM
      1 P          22.1003   70.9483   -2.9392 P.3     1  UNL1        0.2189
      2 O          21.3328   69.5775   -2.5530 O.co2   1  UNL1       -0.4371
      3 O          23.5652   70.7953   -3.2259 O.2     1  UNL1       -0.5170
      4 O          21.7222   71.9583   -1.7331 O.3     1  UNL1       -0.3112
      5 C          22.7749   72.5598   -0.9998 C.3     1  UNL1        0.1811
      6 O          21.9208   74.5335    0.0721 O.3     1  UNL1       -0.3308
      7 O          23.8021   76.0737   -1.6826 O.3     1  UNL1       -0.3794
      8 O          25.1272   76.0125    0.7000 O.3     1  UNL1       -0.3779
      9 C          23.9813   74.7989   -1.0678 C.3     1  UNL1        0.1713
     10 C          24.2260   74.9613    0.4179 C.3     1  UNL1        0.1895
     11 C          22.6415   74.0737   -1.0921 C.3     1  UNL1        0.1764
     12 C          22.8258   75.2357    0.9397 C.3     1  UNL1        0.2383
     13 H          24.6446   76.5555   -1.6792 H       1  UNL1        0.2105
     14 H          26.0034   75.7906    0.3482 H       1  UNL1        0.2106
     15 O          22.0803   76.8780    3.1134 O.2     1  UNL1       -0.2464
     16 O          22.1467   73.3298    6.0540 O.2     1  UNL1       -0.2670
     17 N          22.6408   74.7672    2.2842 N.ar    1  UNL1       -0.2551
     18 N          22.1138   75.1099    4.5758 N.ar    1  UNL1       -0.2743
     19 C          22.2669   75.6743    3.3029 C.ar    1  UNL1        0.3323
     20 C          22.8295   73.4219    2.5814 C.ar    1  UNL1        0.0869
     21 C          22.6808   72.8997    3.8006 C.ar    1  UNL1        0.0795
     22 C          22.2913   73.7796    4.9214 C.ar    1  UNL1        0.2626
     23 H          21.8540   75.7229    5.3014 H       1  UNL1        0.1734
     24 O          21.2286   71.5169   -4.1760 O.3     1  UNL1       -0.2703
     25 P          21.3644   72.8815   -5.0318 P.3     1  UNL1        0.2208
     26 O          22.8709   72.8042   -5.6167 O.co2   1  UNL1       -0.4371
     27 O          21.0661   74.1292   -4.2520 O.2     1  UNL1       -0.5170
     28 O          20.4157   72.6535   -6.3175 O.3     1  UNL1       -0.2858
     29 O          19.2701   70.5789   -6.3197 O.3     1  UNL1       -0.3258
     30 O          18.6006   71.7064  -10.2352 O.3     1  UNL1       -0.3794
     31 O          16.4399   71.7939   -8.3452 O.3     1  UNL1       -0.3794
     32 O          21.1584   72.2495   -8.9934 O.3     1  UNL1       -0.3775
     33 C          18.7787   71.9148   -8.8316 C.3     1  UNL1        0.1715
     34 C          17.6832   71.1464   -8.0898 C.3     1  UNL1        0.1694
     35 C          20.1610   71.4090   -8.4232 C.3     1  UNL1        0.1967
     36 C          17.9623   71.1015   -6.5814 C.3     1  UNL1        0.1761
     37 C          20.3170   71.3576   -6.9023 C.3     1  UNL1        0.2704
     38 H          17.7249   72.0259  -10.5011 H       1  UNL1        0.2105
     39 H          16.2759   71.8160   -9.3012 H       1  UNL1        0.2105
     40 H          21.0490   72.2734   -9.9564 H       1  UNL1        0.2106
     41 O          16.1846   69.5200   -6.7995 O.3     1  UNL1       -0.3794
     42 C          16.9687   70.2079   -5.8423 C.3     1  UNL1        0.1693
     43 H          15.5478   68.9471   -6.3434 H       1  UNL1        0.2105
@<TRIPOS>UNITY_ATOM_ATTR
2 1
charge -1
26 1
charge -1
@<TRIPOS>BOND
     1    25    28    1
     2    25    24    1
     3    25    26    1
     4    25    27    2
     5     1     4    1
     6     1    24    1
     7     1     2    1
     8     1     3    2
     9     6    11    1
    10     6    12    1
    11    29    36    1
    12    29    37    1
    13     7     9    1
    14     7    13    1
    15     8    10    1
    16     8    14    1
    17    28    37    1
    18     4     5    1
    19    30    33    1
    20    30    38    1
    21    31    34    1
    22    31    39    1
    23    32    35    1
    24    32    40    1
    25    41    42    1
    26    41    43    1
    27    15    19    2
    28    16    22    2
    29    17    12    1
    30    17    19   ar
    31    17    20   ar
    32    18    19   ar
    33    18    22   ar
    34    18    23    1
    35     9    10    1
    36     9    11    1
    37    10    12    1
    38    11     5    1
    39    33    34    1
    40    33    35    1
    41    34    36    1
    42    35    37    1
    43    36    42    1
    44    20    21   ar
    45    21    22   ar
@<TRIPOS>MOLECULE
*****
 43 45 0 0 0
SMALL
GASTEIGER

@<TRIPOS>ATOM
      1 P          19.4902   69.5166   -3.1811 P.3     1  UNL1        0.2189
      2 O          19.2900   67.9794   -3.6440 O.co2   1  UNL1       -0.4371
      3 O          19.1012   69.8067   -1.7613 O.2     1  UNL1       -0.5170
      4 O          18.7070   70.3680   -4.3123 O.3     1  UNL1       -0.3112
      5 C          17.4278   70.8913   -3.9997 C.3     1  UNL1        0.1811
      6 O          18.3403   72.6458   -5.3645 O.3     1  UNL1       -0.3308
      7 O          16.0130   74.3054   -4.4588 O.3     1  UNL1       -0.3794
      8 O          15.2418   73.5099   -6.9506 O.3     1  UNL1       -0.3779
      9 C          16.0683   72.9088   -4.7445 C.3     1  UNL1        0.1713
     10 C          16.1382   72.6803   -6.2400 C.3     1  UNL1        0.1895
     11 C          17.4225   72.3879   -4.2794 C.3     1  UNL1        0.1764
     12 C          17.5930   72.9996   -6.5397 C.3     1  UNL1        0.2383
     13 H          15.1569   74.6605   -4.7467 H       1  UNL1        0.2105
     14 H          14.3298   73.2677   -6.7260 H       1  UNL1        0.2106
     15 O          16.6038   70.4829   -7.3554 O.2     1  UNL1       -0.2464
     16 O          19.6117   70.2246  -10.8378 O.2     1  UNL1       -0.2670
     17 N          18.0988   72.2524   -7.6565 N.ar    1  UNL1       -0.2551
     18 N          18.1022   70.3564   -9.0888 N.ar    1  UNL1       -0.2743
     19 C          17.5326   70.9977   -7.9815 C.ar    1  UNL1        0.3323
     20 C          19.1447   72.7648   -8.4165 C.ar    1  UNL1        0.0869
     21 C          19.6774   72.1401   -9.4687 C.ar    1  UNL1        0.0795
     22 C          19.1433   70.8241   -9.8750 C.ar    1  UNL1        0.2626
     23 H          17.7240   69.4807   -9.3337 H       1  UNL1        0.1734
     24 O          21.0443   69.8000   -3.5242 O.3     1  UNL1       -0.2703
     25 P          22.0319   70.9946   -3.0654 P.3     1  UNL1        0.2208
     26 O          21.4555   72.2792   -3.8623 O.co2   1  UNL1       -0.4371
     27 O          23.4873   70.7172   -3.3080 O.2     1  UNL1       -0.5170
     28 O          21.6516   71.2686   -1.5210 O.3     1  UNL1       -0.2858
     29 O          23.1575   72.8287   -0.5644 O.3     1  UNL1       -0.3258
     30 O          21.1010   71.7230    2.8414 O.3     1  UNL1       -0.3794
     31 O          20.6578   74.3199    1.6977 O.3     1  UNL1       -0.3794
     32 O          21.7368   69.7399    0.8308 O.3     1  UNL1       -0.3775
     33 C          21.2553   72.0171    1.4504 C.3     1  UNL1        0.1715
     34 C          21.7319   73.4648    1.3162 C.3     1  UNL1        0.1694
     35 C          22.2784   71.0563    0.8475 C.3     1  UNL1        0.1967
     36 C          22.1744   73.7714   -0.1209 C.3     1  UNL1        0.1761
     37 C          22.6871   71.4794   -0.5646 C.3     1  UNL1        0.2704
     38 H          20.4523   72.3293    3.2302 H       1  UNL1        0.2105
     39 H          20.3876   74.1156    2.6068 H       1  UNL1        0.2105
     40 H          21.4823   69.4837    1.7305 H       1  UNL1        0.2106
     41 O          23.2855   75.5466    1.0295 O.3     1  UNL1       -0.3794
     42 C          22.8002   75.1591   -0.2428 C.3     1  UNL1        0.1693
     43 H          23.6869   76.4279    0.9670 H       1  UNL1        0.2105
@<TRIPOS>UNITY_ATOM_ATTR
2 1
charge -1
26 1
charge -1
@<TRIPOS>BOND
     1    25    28    1
     2    25    24    1
     3    25    26    1
     4    25    27    2
     5     1     4    1
     6     1    24    1
     7     1     2    1
     8     1     3    2
     9     6    11    1
    10     6    12    1
    11    29    36    1
    12    29    37    1
    13     7     9    1
    14     7    13    1
    15     8    10    1
    16     8    14    1
    17    28    37    1
    18     4     5    1
    19    30    33    1
    20    30    38    1
    21    31    34    1
    22    31    39    1
    23    32    35    1
    24    32    40    1
    25    41    42    1
    26    41    43    1
    27    15    19    2
    28    16    22    2
    29    17    12    1
    30    17    19   ar
    31    17    20   ar
    32    18    19   ar
    33    18    22   ar
    34    18    23    1
    35     9    10    1
    36     9    11    1
    37    10    12    1
    38    11     5    1
    39    33    34    1
    40    33    35    1
    41    34    36    1
    42    35    37    1
    43    36    42    1
    44    20    21   ar
    45    21    22   ar
@<TRIPOS>MOLECULE
*****
 43 45 0 0 0
SMALL
GASTEIGER

@<TRIPOS>ATOM
      1 P          20.9419   76.3689   -5.0058 P.3     1  UNL1        0.2189
      2 O          22.3968   77.0511   -5.1936 O.co2   1  UNL1       -0.4371
      3 O          19.8727   76.8953   -5.9174 O.2     1  UNL1       -0.5170
      4 O          20.6474   76.5120   -3.4212 O.3     1  UNL1       -0.3112
      5 C          21.0956   75.4843   -2.5547 C.3     1  UNL1        0.1811
      6 O          21.6029   75.2311   -0.2197 O.3     1  UNL1       -0.3308
      7 O          23.7179   77.3135   -0.6452 O.3     1  UNL1       -0.3794
      8 O          25.1556   74.9962   -0.6516 O.3     1  UNL1       -0.3779
      9 C          23.2823   76.2774   -1.5238 C.3     1  UNL1        0.1713
     10 C          23.8019   74.9352   -1.0525 C.3     1  UNL1        0.1895
     11 C          21.7775   76.1153   -1.3484 C.3     1  UNL1        0.1764
     12 C          22.8641   74.6216    0.1009 C.3     1  UNL1        0.2383
     13 H          24.6761   77.4356   -0.7396 H       1  UNL1        0.2105
     14 H          25.7118   75.1982   -1.4201 H       1  UNL1        0.2106
     15 O          22.3534   73.3834    2.5876 O.2     1  UNL1       -0.2464
     16 O          22.1304   69.2002    0.6659 O.2     1  UNL1       -0.2670
     17 N          22.6682   73.2105    0.2793 N.ar    1  UNL1       -0.2551
     18 N          22.2426   71.3015    1.6287 N.ar    1  UNL1       -0.2743
     19 C          22.4188   72.6899    1.5705 C.ar    1  UNL1        0.3323
     20 C          22.7239   72.3589   -0.8186 C.ar    1  UNL1        0.0869
     21 C          22.5550   71.0370   -0.7460 C.ar    1  UNL1        0.0795
     22 C          22.2900   70.4128    0.5663 C.ar    1  UNL1        0.2626
     23 H          22.0680   70.9163    2.5180 H       1  UNL1        0.1734
     24 O          21.2550   74.7922   -5.1761 O.3     1  UNL1       -0.2703
     25 P          21.6631   73.9256   -6.4782 P.3     1  UNL1        0.2208
     26 O          22.6827   72.8194   -5.8831 O.co2   1  UNL1       -0.4371
     27 O          22.2235   74.7397   -7.6083 O.2     1  UNL1       -0.5170
     28 O          20.3307   73.0939   -6.8495 O.3     1  UNL1       -0.2858
     29 O          19.4898   70.9620   -6.2457 O.3     1  UNL1       -0.3258
     30 O          18.6384   70.8873  -10.2856 O.3     1  UNL1       -0.3794
     31 O          16.5012   71.1925   -8.3915 O.3     1  UNL1       -0.3794
     32 O          21.1029   72.0841   -9.3512 O.3     1  UNL1       -0.3775
     33 C          18.7957   71.4898   -8.9981 C.3     1  UNL1        0.1715
     34 C          17.8254   70.8111   -8.0292 C.3     1  UNL1        0.1694
     35 C          20.2386   71.3034   -8.5327 C.3     1  UNL1        0.1967
     36 C          18.1194   71.2140   -6.5779 C.3     1  UNL1        0.1761
     37 C          20.4118   71.6870   -7.0620 C.3     1  UNL1        0.2704
     38 H          17.7244   71.0025  -10.5871 H       1  UNL1        0.2105
     39 H          16.3286   70.9329   -9.3102 H       1  UNL1        0.2105
     40 H          20.9841   71.8316  -10.2797 H       1  UNL1        0.2106
     41 O          16.4879   69.4905   -6.3007 O.3     1  UNL1       -0.3794
     42 C          17.2676   70.4290   -5.5827 C.3     1  UNL1        0.1693
     43 H          15.9409   68.9833   -5.6801 H       1  UNL1        0.2105
@<TRIPOS>UNITY_ATOM_ATTR
2 1
charge -1
26 1
charge -1
@<TRIPOS>BOND
     1    25    28    1
     2    25    24    1
     3    25    26    1
     4    25    27    2
     5     1     4    1
     6     1    24    1
     7     1     2    1
     8     1     3    2
     9     6    11    1
    10     6    12    1
    11    29    36    1
    12    29    37    1
    13     7     9    1
    14     7    13    1
    15     8    10    1
    16     8    14    1
    17    28    37    1
    18     4     5    1
    19    30    33    1
    20    30    38    1
    21    31    34    1
    22    31    39    1
    23    32    35    1
    24    32    40    1
    25    41    42    1
    26    41    43    1
    27    15    19    2
    28    16    22    2
    29    17    12    1
    30    17    19   ar
    31    17    20   ar
    32    18    19   ar
    33    18    22   ar
    34    18    23    1
    35     9    10    1
    36     9    11    1
    37    10    12    1
    38    11     5    1
    39    33    34    1
    40    33    35    1
    41    34    36    1
    42    35    37    1
    43    36    42    1
    44    20    21   ar
    45    21    22   ar
@<TRIPOS>MOLECULE
*****
 43 45 0 0 0
SMALL
GASTEIGER

@<TRIPOS>ATOM
      1 P          20.9624   70.4561   -1.8910 P.3     1  UNL1        0.2189
      2 O          21.0062   69.8130   -0.4070 O.co2   1  UNL1       -0.4371
      3 O          21.9832   69.9132   -2.8473 O.2     1  UNL1       -0.5170
      4 O          21.0266   72.0508   -1.6252 O.3     1  UNL1       -0.3112
      5 C          21.0854   72.5113   -0.2865 C.3     1  UNL1        0.1811
      6 O          20.8582   74.6716    0.7410 O.3     1  UNL1       -0.3308
      7 O          23.5392   75.3084   -0.4413 O.3     1  UNL1       -0.3794
      8 O          24.1538   74.7409    2.1543 O.3     1  UNL1       -0.3779
      9 C          23.0570   74.0749    0.0891 C.3     1  UNL1        0.1713
     10 C          23.0013   74.1387    1.6012 C.3     1  UNL1        0.1895
     11 C          21.5837   73.9500   -0.2785 C.3     1  UNL1        0.1764
     12 C          21.7437   74.9581    1.8358 C.3     1  UNL1        0.2383
     13 H          24.4785   75.4104   -0.2195 H       1  UNL1        0.2105
     14 H          24.9267   74.1820    1.9787 H       1  UNL1        0.2106
     15 O          21.9290   72.4365    3.0948 O.2     1  UNL1       -0.2464
     16 O          19.1873   73.7585    6.5555 O.2     1  UNL1       -0.2670
     17 N          21.0888   74.6161    3.0669 N.ar    1  UNL1       -0.2551
     18 N          20.5639   73.0969    4.8170 N.ar    1  UNL1       -0.2743
     19 C          21.2461   73.3215    3.6145 C.ar    1  UNL1        0.3323
     20 C          20.3015   75.5592    3.7183 C.ar    1  UNL1        0.0869
     21 C          19.6564   75.3288    4.8638 C.ar    1  UNL1        0.0795
     22 C          19.7683   74.0014    5.5023 C.ar    1  UNL1        0.2626
     23 H          20.6584   72.2019    5.2169 H       1  UNL1        0.1734
     24 O          19.4275   70.2245   -2.3423 O.3     1  UNL1       -0.2703
     25 P          18.7972   69.3770   -3.5660 P.3     1  UNL1        0.2208
     26 O          17.2259   69.7584   -3.5109 O.co2   1  UNL1       -0.4371
     27 O          19.0794   67.9038   -3.5039 O.2     1  UNL1       -0.5170
     28 O          19.3478   70.1080   -4.8954 O.3     1  UNL1       -0.2858
     29 O          19.7483   72.3992   -5.3502 O.3     1  UNL1       -0.3258
     30 O          18.3020   71.2373   -9.0392 O.3     1  UNL1       -0.3794
     31 O          21.0993   71.8094   -8.7289 O.3     1  UNL1       -0.3794
     32 O          17.1370   70.1485   -6.6233 O.3     1  UNL1       -0.3775
     33 C          19.0157   71.0774   -7.8102 C.3     1  UNL1        0.1715
     34 C          20.1154   72.1395   -7.7525 C.3     1  UNL1        0.1694
     35 C          18.0443   71.2452   -6.6434 C.3     1  UNL1        0.1967
     36 C          20.7492   72.2055   -6.3564 C.3     1  UNL1        0.1761
     37 C          18.7802   71.3491   -5.3063 C.3     1  UNL1        0.2704
     38 H          18.9130   71.1314   -9.7842 H       1  UNL1        0.2105
     39 H          20.6860   71.7704   -9.6058 H       1  UNL1        0.2105
     40 H          16.6773   70.0937   -7.4751 H       1  UNL1        0.2106
     41 O          22.9471   72.8643   -5.6901 O.3     1  UNL1       -0.3794
     42 C          21.7376   73.3629   -6.2311 C.3     1  UNL1        0.1693
     43 H          23.5858   73.5899   -5.6049 H       1  UNL1        0.2105
@<TRIPOS>UNITY_ATOM_ATTR
2 1
charge -1
26 1
charge -1
@<TRIPOS>BOND
     1    25    28    1
     2    25    24    1
     3    25    26    1
     4    25    27    2
     5     1     4    1
     6     1    24    1
     7     1     2    1
     8     1     3    2
     9     6    11    1
    10     6    12    1
    11    29    36    1
    12    29    37    1
    13     7     9    1
    14     7    13    1
    15     8    10    1
    16     8    14    1
    17    28    37    1
    18     4     5    1
    19    30    33    1
    20    30    38    1
    21    31    34    1
    22    31    39    1
    23    32    35    1
    24    32    40    1
    25    41    42    1
    26    41    43    1
    27    15    19    2
    28    16    22    2
    29    17    12    1
    30    17    19   ar
    31    17    20   ar
    32    18    19   ar
    33    18    22   ar
    34    18    23    1
    35     9    10    1
    36     9    11    1
    37    10    12    1
    38    11     5    1
    39    33    34    1
    40    33    35    1
    41    34    36    1
    42    35    37    1
    43    36    42    1
    44    20    21   ar
    45    21    22   ar
@<TRIPOS>MOLECULE
*****
 43 45 0 0 0
SMALL
GASTEIGER

@<TRIPOS>ATOM
      1 P          22.6014   73.1738   -4.6593 P.3     1  UNL1        0.2189
      2 O          21.9025   74.6291   -4.5534 O.co2   1  UNL1       -0.4371
      3 O          23.9898   73.0950   -4.0956 O.2     1  UNL1       -0.5170
      4 O          22.4549   72.7854   -6.2231 O.3     1  UNL1       -0.3112
      5 C          21.2156   73.0265   -6.8664 C.3     1  UNL1        0.1811
      6 O          19.1485   71.8051   -6.7718 O.3     1  UNL1       -0.3308
      7 O          20.3984   69.9052   -8.7260 O.3     1  UNL1       -0.3794
      8 O          18.7954   71.4293  -10.3210 O.3     1  UNL1       -0.3779
      9 C          20.5383   71.3217   -8.6293 C.3     1  UNL1        0.1713
     10 C          19.2849   72.0092   -9.1290 C.3     1  UNL1        0.1895
     11 C          20.5376   71.6935   -7.1518 C.3     1  UNL1        0.1764
     12 C          18.3360   71.8252   -7.9568 C.3     1  UNL1        0.2383
     13 H          20.3966   69.6437   -9.6606 H       1  UNL1        0.2105
     14 H          19.4341   71.5729  -11.0367 H       1  UNL1        0.2106
     15 O          15.8882   71.6475   -6.5587 O.2     1  UNL1       -0.2464
     16 O          14.7576   75.9881   -7.6180 O.2     1  UNL1       -0.2670
     17 N          17.3830   72.8939   -7.8507 N.ar    1  UNL1       -0.2551
     18 N          15.3273   73.8090   -7.0871 N.ar    1  UNL1       -0.2743
     19 C          16.1837   72.7012   -7.1262 C.ar    1  UNL1        0.3323
     20 C          17.6420   74.1165   -8.4607 C.ar    1  UNL1        0.0869
     21 C          16.8145   75.1626   -8.4151 C.ar    1  UNL1        0.0795
     22 C          15.5397   75.0444   -7.6782 C.ar    1  UNL1        0.2626
     23 H          14.4855   73.6979   -6.5884 H       1  UNL1        0.1734
     24 O          21.5278   72.2018   -3.9414 O.3     1  UNL1       -0.2703
     25 P          21.7310   70.8558   -3.0697 P.3     1  UNL1        0.2208
     26 O          23.3197   70.5736   -3.1878 O.co2   1  UNL1       -0.4371
     27 O          20.8645   69.7076   -3.4996 O.2     1  UNL1       -0.5170
     28 O          21.5124   71.3227   -1.5402 O.3     1  UNL1       -0.2858
     29 O          23.2176   72.7073   -0.6504 O.3     1  UNL1       -0.3258
     30 O          21.3266   71.6482    2.8643 O.3     1  UNL1       -0.3794
     31 O          21.0339   74.3172    1.8452 O.3     1  UNL1       -0.3794
     32 O          21.6335   69.6995    0.7458 O.3     1  UNL1       -0.3775
     33 C          21.4039   71.9832    1.4760 C.3     1  UNL1        0.1715
     34 C          21.9965   73.3885    1.3541 C.3     1  UNL1        0.1694
     35 C          22.2902   70.9624    0.7648 C.3     1  UNL1        0.1967
     36 C          22.3578   73.7129   -0.1016 C.3     1  UNL1        0.1761
     37 C          22.6301   71.4048   -0.6596 C.3     1  UNL1        0.2704
     38 H          20.7649   72.2922    3.3216 H       1  UNL1        0.2105
     39 H          20.8140   74.1009    2.7651 H       1  UNL1        0.2105
     40 H          21.4240   69.4304    1.6533 H       1  UNL1        0.2106
     41 O          24.4870   74.7924   -0.2029 O.3     1  UNL1       -0.3794
     42 C          23.0942   75.0451   -0.2248 C.3     1  UNL1        0.1693
     43 H          24.9685   75.6314   -0.2808 H       1  UNL1        0.2105
@<TRIPOS>UNITY_ATOM_ATTR
2 1
charge -1
26 1
charge -1
@<TRIPOS>BOND
     1    25    28    1
     2    25    24    1
     3    25    26    1
     4    25    27    2
     5     1     4    1
     6     1    24    1
     7     1     2    1
     8     1     3    2
     9     6    11    1
    10     6    12    1
    11    29    36    1
    12    29    37    1
    13     7     9    1
    14     7    13    1
    15     8    10    1
    16     8    14    1
    17    28    37    1
    18     4     5    1
    19    30    33    1
    20    30    38    1
    21    31    34    1
    22    31    39    1
    23    32    35    1
    24    32    40    1
    25    41    42    1
    26    41    43    1
    27    15    19    2
    28    16    22    2
    29    17    12    1
    30    17    19   ar
    31    17    20   ar
    32    18    19   ar
    33    18    22   ar
    34    18    23    1
    35     9    10    1
    36     9    11    1
    37    10    12    1
    38    11     5    1
    39    33    34    1
    40    33    35    1
    41    34    36    1
    42    35    37    1
    43    36    42    1
    44    20    21   ar
    45    21    22   ar
@<TRIPOS>MOLECULE
*****
 43 45 0 0 0
SMALL
GASTEIGER

@<TRIPOS>ATOM
      1 P          21.7074   73.1856   -6.2775 P.3     1  UNL1        0.2189
      2 O          20.4477   74.0037   -5.6765 O.co2   1  UNL1       -0.4371
      3 O          22.8223   74.0385   -6.8078 O.2     1  UNL1       -0.5170
      4 O          21.0371   72.1655   -7.3395 O.3     1  UNL1       -0.3112
      5 C          20.0137   71.2957   -6.8881 C.3     1  UNL1        0.1811
      6 O          17.7642   70.9718   -7.6682 O.3     1  UNL1       -0.3308
      7 O          18.9048   71.1043  -10.4381 O.3     1  UNL1       -0.3794
      8 O          17.8529   73.5986  -10.1085 O.3     1  UNL1       -0.3779
      9 C          19.2890   71.8255   -9.2687 C.3     1  UNL1        0.1713
     10 C          18.2677   72.8983   -8.9533 C.3     1  UNL1        0.1895
     11 C          19.1482   70.8911   -8.0736 C.3     1  UNL1        0.1764
     12 C          17.1452   72.0898   -8.3252 C.3     1  UNL1        0.2383
     13 H          18.9868   71.6805  -11.2147 H       1  UNL1        0.2105
     14 H          18.6018   74.0972  -10.4708 H       1  UNL1        0.2106
     15 O          16.3394   71.1014   -5.8050 O.2     1  UNL1       -0.2464
     16 O          14.2923   75.0786   -4.6952 O.2     1  UNL1       -0.2670
     17 N          16.4009   72.8456   -7.3577 N.ar    1  UNL1       -0.2551
     18 N          15.3209   73.0826   -5.2544 N.ar    1  UNL1       -0.2743
     19 C          16.0452   72.2556   -6.1224 C.ar    1  UNL1        0.3323
     20 C          16.0317   74.1568   -7.6376 C.ar    1  UNL1        0.0869
     21 C          15.3399   74.9317   -6.7996 C.ar    1  UNL1        0.0795
     22 C          14.9291   74.3913   -5.4876 C.ar    1  UNL1        0.2626
     23 H          15.0618   72.6927   -4.3880 H       1  UNL1        0.1734
     24 O          22.1265   72.2142   -5.0554 O.3     1  UNL1       -0.2703
     25 P          22.9192   72.5199   -3.6802 P.3     1  UNL1        0.2208
     26 O          24.1981   73.3799   -4.1724 O.co2   1  UNL1       -0.4371
     27 O          23.2658   71.2949   -2.8844 O.2     1  UNL1       -0.5170
     28 O          21.9887   73.5832   -2.9000 O.3     1  UNL1       -0.2858
     29 O          19.9301   72.6182   -2.2312 O.3     1  UNL1       -0.3258
     30 O          22.5187   69.8355   -0.6166 O.3     1  UNL1       -0.3794
     31 O          20.9718   69.1535   -2.9382 O.3     1  UNL1       -0.3794
     32 O          23.1951   72.6492   -0.5448 O.3     1  UNL1       -0.3775
     33 C          22.0683   70.7901   -1.5817 C.3     1  UNL1        0.1715
     34 C          20.7281   70.3097   -2.1419 C.3     1  UNL1        0.1694
     35 C          21.9113   72.1497   -0.9033 C.3     1  UNL1        0.1967
     36 C          20.0543   71.4039   -2.9809 C.3     1  UNL1        0.1761
     37 C          21.1859   73.1503   -1.8049 C.3     1  UNL1        0.2704
     38 H          22.6209   68.9701   -1.0409 H       1  UNL1        0.2105
     39 H          21.3979   68.4705   -2.3967 H       1  UNL1        0.2105
     40 H          23.6440   72.0069    0.0261 H       1  UNL1        0.2106
     41 O          18.7454   69.8864   -4.2820 O.3     1  UNL1       -0.3794
     42 C          18.6469   71.0039   -3.4184 C.3     1  UNL1        0.1693
     43 H          17.8571   69.6205   -4.5683 H       1  UNL1        0.2105
@<TRIPOS>UNITY_ATOM_ATTR
2 1
charge -1
26 1
charge -1
@<TRIPOS>BOND
     1    25    28    1
     2    25    24    1
     3    25    26    1
     4    25    27    2
     5     1     4    1
     6     1    24    1
     7     1     2    1
     8     1     3    2
     9     6    11    1
    10     6    12    1
    11    29    36    1
    12    29    37    1
    13     7     9    1
    14     7    13    1
    15     8    10    1
    16     8    14    1
    17    28    37    1
    18     4     5    1
    19    30    33    1
    20    30    38    1
    21    31    34    1
    22    31    39    1
    23    32    35    1
    24    32    40    1
    25    41    42    1
    26    41    43    1
    27    15    19    2
    28    16    22    2
    29    17    12    1
    30    17    19   ar
    31    17    20   ar
    32    18    19   ar
    33    18    22   ar
    34    18    23    1
    35     9    10    1
    36     9    11    1
    37    10    12    1
    38    11     5    1
    39    33    34    1
    40    33    35    1
    41    34    36    1
    42    35    37    1
    43    36    42    1
    44    20    21   ar
    45    21    22   ar
