@<TRIPOS>MOLECULE
GDU
 43 45 0 0 0
SMALL
GASTEIGER

@<TRIPOS>ATOM
      1 P          22.0905   70.8487   -2.5556 P.3     1  UNL1        0.2189
      2 O          21.5161   69.5774   -2.0623 O.2     1  UNL1       -0.5170
      3 O          23.5211   70.5625   -3.2369 O.3     1  UNL1       -0.4371
      4 O          21.0994   71.5000   -3.6421 O.3     1  UNL1       -0.3112
      5 C          20.0822   72.1893   -2.9136 C.3     1  UNL1        0.1811
      6 C          17.9838   71.2858   -5.6898 C.3     1  UNL1        0.2383
      7 C          18.0204   70.0166   -4.8005 C.3     1  UNL1        0.1895
      8 O          16.8000   69.2807   -4.9116 O.3     1  UNL1       -0.3779
      9 C          18.1754   70.6195   -3.3801 C.3     1  UNL1        0.1713
     10 C          18.7410   72.0296   -3.6317 C.3     1  UNL1        0.1764
     11 O          18.9266   72.1723   -5.0506 O.3     1  UNL1       -0.3308
     12 O          16.9066   70.6914   -2.7267 O.3     1  UNL1       -0.3794
     13 H          16.8875   68.5072   -4.3372 H       1  UNL1        0.2106
     14 H          16.5786   69.7850   -2.6515 H       1  UNL1        0.2105
     15 N          18.4120   70.9745   -7.0546 N.ar    1  UNL1       -0.2551
     16 C          17.4942   70.6635   -7.9869 C.ar    1  UNL1        0.3323
     17 N          17.8611   70.3768   -9.2498 N.ar    1  UNL1       -0.2743
     18 C          19.1620   70.3873   -9.5990 C.ar    1  UNL1        0.2626
     19 C          20.1403   70.7074   -8.6260 C.ar    1  UNL1        0.0795
     20 C          19.7445   70.9952   -7.3678 C.ar    1  UNL1        0.0869
     21 O          16.3170   70.6504   -7.6869 O.2     1  UNL1       -0.2464
     22 O          19.4954   70.1232  -10.7408 O.2     1  UNL1       -0.2670
     23 H          17.1850   70.1587   -9.9109 H       1  UNL1        0.1734
     24 O          22.2791   71.8658   -1.3217 O.3     1  UNL1       -0.2703
     25 P          22.3672   70.9698    0.0123 P.3     1  UNL1        0.2208
     26 O          21.1187   70.1910    0.1664 O.2     1  UNL1       -0.5170
     27 O          23.6178   69.9612   -0.1006 O.3     1  UNL1       -0.4371
     28 O          22.5651   71.9270    1.2908 O.3     1  UNL1       -0.2858
     29 C          21.8832   73.1487    1.0041 C.3     1  UNL1        0.2704
     30 C          22.8978   74.2900    0.9183 C.3     1  UNL1        0.1967
     31 C          23.6497   74.3898    2.2492 C.3     1  UNL1        0.1715
     32 C          22.6252   74.5115    3.3829 C.3     1  UNL1        0.1694
     33 C          21.6317   73.3513    3.2827 C.3     1  UNL1        0.1761
     34 O          23.8238   74.0289   -0.1379 O.3     1  UNL1       -0.3775
     35 O          24.4956   75.5416    2.2375 O.3     1  UNL1       -0.3794
     36 O          21.9298   75.7537    3.2672 O.3     1  UNL1       -0.3794
     37 O          20.9384   73.4174    2.0374 O.3     1  UNL1       -0.3258
     38 H          23.3072   73.9671   -0.9528 H       1  UNL1        0.2106
     39 H          25.1134   75.4277    1.5043 H       1  UNL1        0.2105
     40 H          22.5935   76.4529    3.3298 H       1  UNL1        0.2105
     41 C          20.6244   73.4441    4.4310 C.3     1  UNL1        0.1693
     42 O          21.2644   73.0811    5.6556 O.3     1  UNL1       -0.3794
     43 H          20.5974   73.1533    6.3521 H       1  UNL1        0.2105
@<TRIPOS>BOND
     1    15    16   ar
     2    15    20   ar
     3    15     6    1
     4    16    17   ar
     5    16    21    2
     6    17    18   ar
     7    17    23    1
     8    18    19   ar
     9    18    22    2
    10    19    20   ar
    11     6     7    1
    12     6    11    1
    13     7     8    1
    14     7     9    1
    15     8    13    1
    16     9    10    1
    17     9    12    1
    18    10    11    1
    19    10     5    1
    20    12    14    1
    21     5     4    1
    22     4     1    1
    23     1     2    2
    24     1     3    1
    25     1    24    1
    26    24    25    1
    27    25    26    2
    28    25    27    1
    29    25    28    1
    30    28    29    1
    31    29    30    1
    32    29    37    1
    33    30    31    1
    34    30    34    1
    35    31    32    1
    36    31    35    1
    37    32    33    1
    38    32    36    1
    39    33    41    1
    40    33    37    1
    41    41    42    1
    42    34    38    1
    43    35    39    1
    44    36    40    1
    45    42    43    1
@<TRIPOS>MOLECULE
GDU
 43 45 0 0 0
SMALL
GASTEIGER

@<TRIPOS>ATOM
      1 P          22.1008   70.9497   -2.5231 P.3     1  UNL1        0.2189
      2 O          21.5050   69.6280   -2.2271 O.2     1  UNL1       -0.5170
      3 O          23.5348   70.7463   -3.2269 O.3     1  UNL1       -0.4371
      4 O          21.1297   71.7675   -3.5105 O.3     1  UNL1       -0.3112
      5 C          20.1262   72.3743   -2.6948 C.3     1  UNL1        0.1811
      6 C          17.9068   71.3852   -5.3450 C.3     1  UNL1        0.2383
      7 C          18.0188   70.1299   -4.4424 C.3     1  UNL1        0.1895
      8 O          16.8113   69.3658   -4.4796 O.3     1  UNL1       -0.3779
      9 C          18.2339   70.7563   -3.0400 C.3     1  UNL1        0.1713
     10 C          18.7532   72.1748   -3.3394 C.3     1  UNL1        0.1764
     11 O          18.8613   72.3014   -4.7678 O.3     1  UNL1       -0.3308
     12 O          16.9997   70.8094   -2.3218 O.3     1  UNL1       -0.3794
     13 H          16.9463   68.6027   -3.9005 H       1  UNL1        0.2106
     14 H          16.6968   69.8972   -2.2177 H       1  UNL1        0.2105
     15 N          18.2701   71.0641   -6.7262 N.ar    1  UNL1       -0.2551
     16 C          17.3118   70.7234   -7.6058 C.ar    1  UNL1        0.3323
     17 N          17.6187   70.4270   -8.8825 N.ar    1  UNL1       -0.2743
     18 C          18.8993   70.4576   -9.2987 C.ar    1  UNL1        0.2626
     19 C          19.9200   70.8092   -8.3816 C.ar    1  UNL1        0.0795
     20 C          19.5840   71.1060   -7.1083 C.ar    1  UNL1        0.0869
     21 O          16.1520   70.6919   -7.2451 O.2     1  UNL1       -0.2464
     22 O          19.1786   70.1849  -10.4528 O.2     1  UNL1       -0.2670
     23 H          16.9138   70.1874   -9.5049 H       1  UNL1        0.1734
     24 O          22.2895   71.7716   -1.1515 O.3     1  UNL1       -0.2703
     25 P          21.8994   70.7727    0.0485 P.3     1  UNL1        0.2208
     26 O          20.9559   69.7479   -0.4501 O.2     1  UNL1       -0.5170
     27 O          23.2300   70.0528    0.6012 O.3     1  UNL1       -0.4371
     28 O          21.2079   71.6064    1.2388 O.3     1  UNL1       -0.2858
     29 C          22.2017   72.4916    1.7572 C.3     1  UNL1        0.2704
     30 C          22.0363   72.6111    3.2730 C.3     1  UNL1        0.1967
     31 C          20.6307   73.1360    3.5813 C.3     1  UNL1        0.1715
     32 C          20.4093   74.4340    2.7966 C.3     1  UNL1        0.1694
     33 C          20.6964   74.1754    1.3155 C.3     1  UNL1        0.1761
     34 O          22.2127   71.3281    3.8763 O.3     1  UNL1       -0.3775
     35 O          20.5105   73.3925    4.9821 O.3     1  UNL1       -0.3794
     36 O          21.2886   75.4460    3.2892 O.3     1  UNL1       -0.3794
     37 O          22.0558   73.7740    1.1517 O.3     1  UNL1       -0.3258
     38 H          23.1058   71.0341    3.6507 H       1  UNL1        0.2106
     39 H          20.6686   72.5543    5.4347 H       1  UNL1        0.2105
     40 H          21.0762   75.5709    4.2233 H       1  UNL1        0.2105
     41 C          20.4451   75.4570    0.5178 C.3     1  UNL1        0.1693
     42 O          19.3613   76.1784    1.1059 O.3     1  UNL1       -0.3794
     43 H          19.2361   76.9772    0.5753 H       1  UNL1        0.2105
@<TRIPOS>BOND
     1    15    16   ar
     2    15    20   ar
     3    15     6    1
     4    16    17   ar
     5    16    21    2
     6    17    18   ar
     7    17    23    1
     8    18    19   ar
     9    18    22    2
    10    19    20   ar
    11     6     7    1
    12     6    11    1
    13     7     8    1
    14     7     9    1
    15     8    13    1
    16     9    10    1
    17     9    12    1
    18    10    11    1
    19    10     5    1
    20    12    14    1
    21     5     4    1
    22     4     1    1
    23     1     2    2
    24     1     3    1
    25     1    24    1
    26    24    25    1
    27    25    26    2
    28    25    27    1
    29    25    28    1
    30    28    29    1
    31    29    30    1
    32    29    37    1
    33    30    31    1
    34    30    34    1
    35    31    32    1
    36    31    35    1
    37    32    33    1
    38    32    36    1
    39    33    41    1
    40    33    37    1
    41    41    42    1
    42    34    38    1
    43    35    39    1
    44    36    40    1
    45    42    43    1
@<TRIPOS>MOLECULE
GDU
 43 45 0 0 0
SMALL
GASTEIGER

@<TRIPOS>ATOM
      1 P          22.5744   71.3227   -2.4969 P.3     1  UNL1        0.2189
      2 O          22.4012   70.5763   -1.2311 O.2     1  UNL1       -0.5170
      3 O          23.7305   70.6274   -3.3760 O.3     1  UNL1       -0.4371
      4 O          21.1932   71.3106   -3.3209 O.3     1  UNL1       -0.3112
      5 C          20.2748   72.1347   -2.6012 C.3     1  UNL1        0.1811
      6 C          17.9830   71.3638   -5.2621 C.3     1  UNL1        0.2383
      7 C          18.0366   70.0712   -4.4081 C.3     1  UNL1        0.1895
      8 O          16.7903   69.3732   -4.4607 O.3     1  UNL1       -0.3779
      9 C          18.2969   70.6321   -2.9858 C.3     1  UNL1        0.1713
     10 C          18.8876   72.0318   -3.2378 C.3     1  UNL1        0.1764
     11 O          18.9895   72.2063   -4.6617 O.3     1  UNL1       -0.3308
     12 O          17.0736   70.7225   -2.2529 O.3     1  UNL1       -0.3794
     13 H          16.8900   68.5828   -3.9119 H       1  UNL1        0.2106
     14 H          16.7240   69.8242   -2.1795 H       1  UNL1        0.2105
     15 N          18.3166   71.0764   -6.6582 N.ar    1  UNL1       -0.2551
     16 C          17.3362   70.7903   -7.5329 C.ar    1  UNL1        0.3323
     17 N          17.6157   70.5259   -8.8228 N.ar    1  UNL1       -0.2743
     18 C          18.8904   70.5342   -9.2578 C.ar    1  UNL1        0.2626
     19 C          19.9340   70.8282   -8.3464 C.ar    1  UNL1        0.0795
     20 C          19.6254   71.0939   -7.0593 C.ar    1  UNL1        0.0869
     21 O          16.1815   70.7796   -7.1552 O.2     1  UNL1       -0.2464
     22 O          19.1447   70.2903  -10.4242 O.2     1  UNL1       -0.2670
     23 H          16.8952   70.3256   -9.4412 H       1  UNL1        0.1734
     24 O          22.9921   72.8429   -2.1695 O.3     1  UNL1       -0.2703
     25 P          23.3842   73.5311   -3.5705 P.3     1  UNL1        0.2208
     26 O          23.3014   72.5266   -4.6536 O.2     1  UNL1       -0.5170
     27 O          22.3633   74.7380   -3.8794 O.3     1  UNL1       -0.4371
     28 O          24.8844   74.1074   -3.4852 O.3     1  UNL1       -0.2858
     29 C          24.7766   75.5198   -3.3027 C.3     1  UNL1        0.2704
     30 C          25.3971   76.2371   -4.5026 C.3     1  UNL1        0.1967
     31 C          26.8652   75.8186   -4.6292 C.3     1  UNL1        0.1715
     32 C          27.5633   76.0681   -3.2876 C.3     1  UNL1        0.1694
     33 C          26.7790   75.3613   -2.1793 C.3     1  UNL1        0.1761
     34 O          24.6913   75.8785   -5.6919 O.3     1  UNL1       -0.3775
     35 O          27.4976   76.5895   -5.6530 O.3     1  UNL1       -0.3794
     36 O          27.6093   77.4716   -3.0266 O.3     1  UNL1       -0.3794
     37 O          25.4580   75.8962   -2.1083 O.3     1  UNL1       -0.3258
     38 H          23.7731   76.1534   -5.5651 H       1  UNL1        0.2106
     39 H          27.0200   76.4111   -6.4730 H       1  UNL1        0.2105
     40 H          28.1060   77.8747   -3.7505 H       1  UNL1        0.2105
     41 C          27.4869   75.5757   -0.8395 C.3     1  UNL1        0.1693
     42 O          26.9246   76.7120   -0.1811 O.3     1  UNL1       -0.3794
     43 H          27.3967   76.8118    0.6571 H       1  UNL1        0.2105
@<TRIPOS>BOND
     1    15    16   ar
     2    15    20   ar
     3    15     6    1
     4    16    17   ar
     5    16    21    2
     6    17    18   ar
     7    17    23    1
     8    18    19   ar
     9    18    22    2
    10    19    20   ar
    11     6     7    1
    12     6    11    1
    13     7     8    1
    14     7     9    1
    15     8    13    1
    16     9    10    1
    17     9    12    1
    18    10    11    1
    19    10     5    1
    20    12    14    1
    21     5     4    1
    22     4     1    1
    23     1     2    2
    24     1     3    1
    25     1    24    1
    26    24    25    1
    27    25    26    2
    28    25    27    1
    29    25    28    1
    30    28    29    1
    31    29    30    1
    32    29    37    1
    33    30    31    1
    34    30    34    1
    35    31    32    1
    36    31    35    1
    37    32    33    1
    38    32    36    1
    39    33    41    1
    40    33    37    1
    41    41    42    1
    42    34    38    1
    43    35    39    1
    44    36    40    1
    45    42    43    1
@<TRIPOS>MOLECULE
GDU
 43 45 0 0 0
SMALL
GASTEIGER

@<TRIPOS>ATOM
      1 P          21.5930   70.6134   -0.4505 P.3     1  UNL1        0.2189
      2 O          21.6553   69.9290    0.8599 O.2     1  UNL1       -0.5170
      3 O          23.0873   70.8903   -0.9827 O.3     1  UNL1       -0.4371
      4 O          20.8114   69.6840   -1.5051 O.3     1  UNL1       -0.3112
      5 C          20.9800   70.2845   -2.7903 C.3     1  UNL1        0.1811
      6 C          18.4616   70.8866   -5.2847 C.3     1  UNL1        0.2383
      7 C          18.0532   69.5388   -4.6370 C.3     1  UNL1        0.1895
      8 O          16.6340   69.3706   -4.6615 O.3     1  UNL1       -0.3779
      9 C          18.5650   69.7090   -3.1828 C.3     1  UNL1        0.1713
     10 C          19.6337   70.8126   -3.2890 C.3     1  UNL1        0.1764
     11 O          19.7366   71.1806   -4.6754 O.3     1  UNL1       -0.3308
     12 O          17.4992   70.1164   -2.3226 O.3     1  UNL1       -0.3794
     13 H          16.4471   68.5171   -4.2461 H       1  UNL1        0.2106
     14 H          16.8369   69.4124   -2.3444 H       1  UNL1        0.2105
     15 N          18.6038   70.7425   -6.7345 N.ar    1  UNL1       -0.2551
     16 C          17.5070   70.7066   -7.5118 C.ar    1  UNL1        0.3323
     17 N          17.6102   70.5783   -8.8478 N.ar    1  UNL1       -0.2743
     18 C          18.8206   70.4734   -9.4293 C.ar    1  UNL1        0.2626
     19 C          19.9844   70.5039   -8.6225 C.ar    1  UNL1        0.0795
     20 C          19.8525   70.6377   -7.2857 C.ar    1  UNL1        0.0869
     21 O          16.4084   70.8005   -7.0016 O.2     1  UNL1       -0.2464
     22 O          18.9148   70.3525  -10.6380 O.2     1  UNL1       -0.2670
     23 H          16.8082   70.5585   -9.3938 H       1  UNL1        0.1734
     24 O          20.8149   72.0135   -0.2872 O.3     1  UNL1       -0.2703
     25 P          21.9252   73.1273    0.0546 P.3     1  UNL1        0.2208
     26 O          23.2717   72.5178   -0.0119 O.2     1  UNL1       -0.5170
     27 O          21.8269   74.3283   -1.0141 O.3     1  UNL1       -0.4371
     28 O          21.6692   73.7052    1.5346 O.3     1  UNL1       -0.2858
     29 C          22.7628   73.2716    2.3444 C.3     1  UNL1        0.2704
     30 C          22.2267   72.6705    3.6446 C.3     1  UNL1        0.1967
     31 C          21.3968   73.7287    4.3781 C.3     1  UNL1        0.1715
     32 C          22.2503   74.9908    4.5462 C.3     1  UNL1        0.1694
     33 C          22.7833   75.4173    3.1762 C.3     1  UNL1        0.1761
     34 O          21.4067   71.5391    3.3465 O.3     1  UNL1       -0.3775
     35 O          21.0119   73.2320    5.6617 O.3     1  UNL1       -0.3794
     36 O          23.3423   74.7157    5.4247 O.3     1  UNL1       -0.3794
     37 O          23.6057   74.3837    2.6366 O.3     1  UNL1       -0.3258
     38 H          21.9668   70.9038    2.8801 H       1  UNL1        0.2106
     39 H          20.4893   72.4348    5.5081 H       1  UNL1        0.2105
     40 H          22.9604   74.4464    6.2702 H       1  UNL1        0.2105
     41 C          23.6091   76.6969    3.3279 C.3     1  UNL1        0.1693
     42 O          24.9847   76.3564    3.5085 O.3     1  UNL1       -0.3794
     43 H          25.4694   77.1883    3.5992 H       1  UNL1        0.2105
@<TRIPOS>BOND
     1    15    16   ar
     2    15    20   ar
     3    15     6    1
     4    16    17   ar
     5    16    21    2
     6    17    18   ar
     7    17    23    1
     8    18    19   ar
     9    18    22    2
    10    19    20   ar
    11     6     7    1
    12     6    11    1
    13     7     8    1
    14     7     9    1
    15     8    13    1
    16     9    10    1
    17     9    12    1
    18    10    11    1
    19    10     5    1
    20    12    14    1
    21     5     4    1
    22     4     1    1
    23     1     2    2
    24     1     3    1
    25     1    24    1
    26    24    25    1
    27    25    26    2
    28    25    27    1
    29    25    28    1
    30    28    29    1
    31    29    30    1
    32    29    37    1
    33    30    31    1
    34    30    34    1
    35    31    32    1
    36    31    35    1
    37    32    33    1
    38    32    36    1
    39    33    41    1
    40    33    37    1
    41    41    42    1
    42    34    38    1
    43    35    39    1
    44    36    40    1
    45    42    43    1
@<TRIPOS>MOLECULE
GDU
 43 45 0 0 0
SMALL
GASTEIGER

@<TRIPOS>ATOM
      1 P          22.0685   75.3015   -5.4694 P.3     1  UNL1        0.2189
      2 O          23.2376   74.7859   -6.2156 O.2     1  UNL1       -0.5170
      3 O          22.3308   76.8351   -5.0542 O.3     1  UNL1       -0.4371
      4 O          20.7577   75.2134   -6.3972 O.3     1  UNL1       -0.3112
      5 C          21.1073   74.4211   -7.5332 C.3     1  UNL1        0.1811
      6 C          18.6338   71.9110   -6.8200 C.3     1  UNL1        0.2383
      7 C          17.9042   73.2567   -6.5756 C.3     1  UNL1        0.1895
      8 O          16.5095   73.1406   -6.8660 O.3     1  UNL1       -0.3779
      9 C          18.6047   74.1953   -7.5924 C.3     1  UNL1        0.1713
     10 C          19.9434   73.4940   -7.8883 C.3     1  UNL1        0.1764
     11 O          19.9976   72.3087   -7.0757 O.3     1  UNL1       -0.3308
     12 O          17.8220   74.3164   -8.7818 O.3     1  UNL1       -0.3794
     13 H          16.1158   74.0074   -6.6942 H       1  UNL1        0.2106
     14 H          16.9763   74.7063   -8.5221 H       1  UNL1        0.2105
     15 N          18.5593   71.0583   -5.6324 N.ar    1  UNL1       -0.2551
     16 C          17.5240   70.2134   -5.4820 C.ar    1  UNL1        0.3323
     17 N          17.4335   69.4161   -4.4013 N.ar    1  UNL1       -0.2743
     18 C          18.3791   69.4596   -3.4431 C.ar    1  UNL1        0.2626
     19 C          19.4724   70.3488   -3.5854 C.ar    1  UNL1        0.0795
     20 C          19.5409   71.1343   -4.6812 C.ar    1  UNL1        0.0869
     21 O          16.6635   70.1628   -6.3382 O.2     1  UNL1       -0.2464
     22 O          18.2956   68.7417   -2.4622 O.2     1  UNL1       -0.2670
     23 H          16.6816   68.8093   -4.3111 H       1  UNL1        0.1734
     24 O          21.8481   74.4177   -4.1416 O.3     1  UNL1       -0.2703
     25 P          23.2775   73.7842   -3.7603 P.3     1  UNL1        0.2208
     26 O          23.5170   72.5774   -4.5821 O.2     1  UNL1       -0.5170
     27 O          24.4367   74.8655   -4.0451 O.3     1  UNL1       -0.4371
     28 O          23.2898   73.3842   -2.2014 O.3     1  UNL1       -0.2858
     29 C          21.9975   73.7002   -1.6818 C.3     1  UNL1        0.2704
     30 C          22.1510   74.4766   -0.3730 C.3     1  UNL1        0.1967
     31 C          22.9407   73.6225    0.6237 C.3     1  UNL1        0.1715
     32 C          22.2543   72.2579    0.7514 C.3     1  UNL1        0.1694
     33 C          22.0947   71.6486   -0.6437 C.3     1  UNL1        0.1761
     34 O          22.8513   75.6972   -0.6198 O.3     1  UNL1       -0.3775
     35 O          22.9662   74.2709    1.8971 O.3     1  UNL1       -0.3794
     36 O          20.9706   72.4235    1.3555 O.3     1  UNL1       -0.3794
     37 O          21.2736   72.4946   -1.4474 O.3     1  UNL1       -0.3258
     38 H          22.3230   76.1982   -1.2560 H       1  UNL1        0.2106
     39 H          23.3940   75.1266    1.7669 H       1  UNL1        0.2105
     40 H          21.1195   72.8140    2.2265 H       1  UNL1        0.2105
     41 C          21.4410   70.2700   -0.5244 C.3     1  UNL1        0.1693
     42 O          21.8477   69.6551    0.6993 O.3     1  UNL1       -0.3794
     43 H          21.4145   68.7913    0.7360 H       1  UNL1        0.2105
@<TRIPOS>BOND
     1    15    16   ar
     2    15    20   ar
     3    15     6    1
     4    16    17   ar
     5    16    21    2
     6    17    18   ar
     7    17    23    1
     8    18    19   ar
     9    18    22    2
    10    19    20   ar
    11     6     7    1
    12     6    11    1
    13     7     8    1
    14     7     9    1
    15     8    13    1
    16     9    10    1
    17     9    12    1
    18    10    11    1
    19    10     5    1
    20    12    14    1
    21     5     4    1
    22     4     1    1
    23     1     2    2
    24     1     3    1
    25     1    24    1
    26    24    25    1
    27    25    26    2
    28    25    27    1
    29    25    28    1
    30    28    29    1
    31    29    30    1
    32    29    37    1
    33    30    31    1
    34    30    34    1
    35    31    32    1
    36    31    35    1
    37    32    33    1
    38    32    36    1
    39    33    41    1
    40    33    37    1
    41    41    42    1
    42    34    38    1
    43    35    39    1
    44    36    40    1
    45    42    43    1
@<TRIPOS>MOLECULE
GDU
 43 45 0 0 0
SMALL
GASTEIGER

@<TRIPOS>ATOM
      1 P          22.8829   74.0547   -4.0224 P.3     1  UNL1        0.2189
      2 O          23.4992   74.9955   -4.9840 O.2     1  UNL1       -0.5170
      3 O          23.6311   72.6315   -4.1096 O.3     1  UNL1       -0.4371
      4 O          23.0211   74.6431   -2.5319 O.3     1  UNL1       -0.3112
      5 C          22.1240   73.8970   -1.7077 C.3     1  UNL1        0.1811
      6 C          23.0178   72.3065    1.3904 C.3     1  UNL1        0.2383
      7 C          21.9397   71.3790    0.7737 C.3     1  UNL1        0.1895
      8 O          22.1605   70.0184    1.1523 O.3     1  UNL1       -0.3779
      9 C          22.1737   71.5750   -0.7468 C.3     1  UNL1        0.1713
     10 C          22.9191   72.9193   -0.8405 C.3     1  UNL1        0.1764
     11 O          23.0405   73.4385    0.4951 O.3     1  UNL1       -0.3308
     12 O          22.9748   70.5136   -1.2699 O.3     1  UNL1       -0.3794
     13 H          21.4591   69.4964    0.7382 H       1  UNL1        0.2106
     14 H          22.4811   69.6944   -1.1289 H       1  UNL1        0.2105
     15 N          22.6320   72.7236    2.7395 N.ar    1  UNL1       -0.2551
     16 C          21.3758   72.5109    3.1696 C.ar    1  UNL1        0.3323
     17 N          20.9964   72.8815    4.4068 N.ar    1  UNL1       -0.2743
     18 C          21.8717   73.4838    5.2346 C.ar    1  UNL1        0.2626
     19 C          23.1968   73.7195    4.7930 C.ar    1  UNL1        0.0795
     20 C          23.5520   73.3338    3.5490 C.ar    1  UNL1        0.0869
     21 O          20.5752   71.9682    2.4344 O.2     1  UNL1       -0.2464
     22 O          21.5279   73.8240    6.3529 O.2     1  UNL1       -0.2670
     23 H          20.0869   72.7163    4.7022 H       1  UNL1        0.1734
     24 O          21.3254   73.8637   -4.3831 O.3     1  UNL1       -0.2703
     25 P          21.2533   73.4553   -5.9381 P.3     1  UNL1        0.2208
     26 O          21.1000   74.6749   -6.7616 O.2     1  UNL1       -0.5170
     27 O          22.6093   72.6932   -6.3560 O.3     1  UNL1       -0.4371
     28 O          19.9953   72.4813   -6.1804 O.3     1  UNL1       -0.2858
     29 C          18.9546   72.9225   -5.3074 C.3     1  UNL1        0.2704
     30 C          18.3088   71.7116   -4.6323 C.3     1  UNL1        0.1967
     31 C          17.7505   70.7782   -5.7109 C.3     1  UNL1        0.1715
     32 C          16.8235   71.5861   -6.6261 C.3     1  UNL1        0.1694
     33 C          17.5833   72.8065   -7.1520 C.3     1  UNL1        0.1761
     34 O          19.2876   71.0176   -3.8566 O.3     1  UNL1       -0.3775
     35 O          17.0163   69.7179   -5.0951 O.3     1  UNL1       -0.3794
     36 O          15.6769   72.0124   -5.8887 O.3     1  UNL1       -0.3794
     37 O          17.9763   73.6362   -6.0598 O.3     1  UNL1       -0.3258
     38 H          19.6159   71.6437   -3.1969 H       1  UNL1        0.2106
     39 H          17.6336   69.2461   -4.5219 H       1  UNL1        0.2105
     40 H          15.2343   71.2138   -5.5731 H       1  UNL1        0.2105
     41 C          16.6772   73.6020   -8.0945 C.3     1  UNL1        0.1693
     42 O          15.7439   72.7170   -8.7163 O.3     1  UNL1       -0.3794
     43 H          15.1928   73.2564   -9.2999 H       1  UNL1        0.2105
@<TRIPOS>BOND
     1    15    16   ar
     2    15    20   ar
     3    15     6    1
     4    16    17   ar
     5    16    21    2
     6    17    18   ar
     7    17    23    1
     8    18    19   ar
     9    18    22    2
    10    19    20   ar
    11     6     7    1
    12     6    11    1
    13     7     8    1
    14     7     9    1
    15     8    13    1
    16     9    10    1
    17     9    12    1
    18    10    11    1
    19    10     5    1
    20    12    14    1
    21     5     4    1
    22     4     1    1
    23     1     2    2
    24     1     3    1
    25     1    24    1
    26    24    25    1
    27    25    26    2
    28    25    27    1
    29    25    28    1
    30    28    29    1
    31    29    30    1
    32    29    37    1
    33    30    31    1
    34    30    34    1
    35    31    32    1
    36    31    35    1
    37    32    33    1
    38    32    36    1
    39    33    41    1
    40    33    37    1
    41    41    42    1
    42    34    38    1
    43    35    39    1
    44    36    40    1
    45    42    43    1
@<TRIPOS>MOLECULE
GDU
 43 45 0 0 0
SMALL
GASTEIGER

@<TRIPOS>ATOM
      1 P          22.7720   71.5459   -2.1962 P.3     1  UNL1        0.2189
      2 O          23.1486   71.2175   -3.5890 O.2     1  UNL1       -0.5170
      3 O          23.4442   72.9472   -1.7748 O.3     1  UNL1       -0.4371
      4 O          21.1718   71.6637   -2.0860 O.3     1  UNL1       -0.3112
      5 C          20.6346   71.1611   -3.3105 C.3     1  UNL1        0.1811
      6 C          17.2232   71.2114   -4.4451 C.3     1  UNL1        0.2383
      7 C          17.7206   69.7798   -4.7709 C.3     1  UNL1        0.1895
      8 O          16.6471   68.8386   -4.7000 O.3     1  UNL1       -0.3779
      9 C          18.7518   69.5289   -3.6400 C.3     1  UNL1        0.1713
     10 C          19.1285   70.9418   -3.1568 C.3     1  UNL1        0.1764
     11 O          18.4119   71.8823   -3.9754 O.3     1  UNL1       -0.3308
     12 O          18.1592   68.7726   -2.5823 O.3     1  UNL1       -0.3794
     13 H          17.0214   67.9722   -4.9124 H       1  UNL1        0.2106
     14 H          17.8918   67.9240   -2.9605 H       1  UNL1        0.2105
     15 N          16.7029   71.8651   -5.6471 N.ar    1  UNL1       -0.2551
     16 C          17.1112   71.4527   -6.8602 C.ar    1  UNL1        0.3323
     17 N          16.6455   72.0344   -7.9812 N.ar    1  UNL1       -0.2743
     18 C          15.7656   73.0513   -7.9045 C.ar    1  UNL1        0.2626
     19 C          15.3311   73.5001   -6.6333 C.ar    1  UNL1        0.0795
     20 C          15.8107   72.8962   -5.5252 C.ar    1  UNL1        0.0869
     21 O          17.9042   70.5362   -6.9452 O.2     1  UNL1       -0.2464
     22 O          15.3472   73.5816   -8.9185 O.2     1  UNL1       -0.2670
     23 H          16.9477   71.7211   -8.8485 H       1  UNL1        0.1734
     24 O          23.2949   70.3840   -1.2118 O.3     1  UNL1       -0.2703
     25 P          22.5488   70.5962    0.1983 P.3     1  UNL1        0.2208
     26 O          21.1348   70.1784    0.0756 O.2     1  UNL1       -0.5170
     27 O          23.2744   69.7070    1.3283 O.3     1  UNL1       -0.4371
     28 O          22.6164   72.1494    0.6140 O.3     1  UNL1       -0.2858
     29 C          21.5806   72.3678    1.5728 C.3     1  UNL1        0.2704
     30 C          20.7237   73.5565    1.1348 C.3     1  UNL1        0.1967
     31 C          21.6159   74.7955    1.0108 C.3     1  UNL1        0.1715
     32 C          22.3731   74.9881    2.3295 C.3     1  UNL1        0.1694
     33 C          23.1071   73.6904    2.6761 C.3     1  UNL1        0.1761
     34 O          20.1196   73.2715   -0.1281 O.3     1  UNL1       -0.3775
     35 O          20.8080   75.9443    0.7460 O.3     1  UNL1       -0.3794
     36 O          21.4483   75.3118    3.3687 O.3     1  UNL1       -0.3794
     37 O          22.1630   72.6342    2.8466 O.3     1  UNL1       -0.3258
     38 H          19.5745   72.4824   -0.0049 H       1  UNL1        0.2106
     39 H          20.3429   75.7744   -0.0829 H       1  UNL1        0.2105
     40 H          21.0067   76.1298    3.1056 H       1  UNL1        0.2105
     41 C          23.8946   73.8829    3.9741 C.3     1  UNL1        0.1693
     42 O          24.2472   75.2599    4.1166 O.3     1  UNL1       -0.3794
     43 H          24.7401   75.3384    4.9449 H       1  UNL1        0.2105
@<TRIPOS>BOND
     1    15    16   ar
     2    15    20   ar
     3    15     6    1
     4    16    17   ar
     5    16    21    2
     6    17    18   ar
     7    17    23    1
     8    18    19   ar
     9    18    22    2
    10    19    20   ar
    11     6     7    1
    12     6    11    1
    13     7     8    1
    14     7     9    1
    15     8    13    1
    16     9    10    1
    17     9    12    1
    18    10    11    1
    19    10     5    1
    20    12    14    1
    21     5     4    1
    22     4     1    1
    23     1     2    2
    24     1     3    1
    25     1    24    1
    26    24    25    1
    27    25    26    2
    28    25    27    1
    29    25    28    1
    30    28    29    1
    31    29    30    1
    32    29    37    1
    33    30    31    1
    34    30    34    1
    35    31    32    1
    36    31    35    1
    37    32    33    1
    38    32    36    1
    39    33    41    1
    40    33    37    1
    41    41    42    1
    42    34    38    1
    43    35    39    1
    44    36    40    1
    45    42    43    1
@<TRIPOS>MOLECULE
GDU
 43 45 0 0 0
SMALL
GASTEIGER

@<TRIPOS>ATOM
      1 P          20.6152   70.1672   -1.8447 P.3     1  UNL1        0.2189
      2 O          21.5650   69.3320   -2.6127 O.2     1  UNL1       -0.5170
      3 O          20.7677   71.7056   -2.2956 O.3     1  UNL1       -0.4371
      4 O          19.1120   69.6711   -2.1294 O.3     1  UNL1       -0.3112
      5 C          19.1355   68.9740   -3.3760 C.3     1  UNL1        0.1811
      6 C          16.7738   71.4920   -4.3806 C.3     1  UNL1        0.2383
      7 C          18.1507   72.0526   -4.8198 C.3     1  UNL1        0.1895
      8 O          18.0205   72.8687   -5.9861 O.3     1  UNL1       -0.3779
      9 C          18.9427   70.7574   -5.1367 C.3     1  UNL1        0.1713
     10 C          18.1892   69.6593   -4.3634 C.3     1  UNL1        0.1764
     11 O          17.1150   70.2953   -3.6493 O.3     1  UNL1       -0.3308
     12 O          18.9250   70.4918   -6.5406 O.3     1  UNL1       -0.3794
     13 H          18.9080   73.1848   -6.2058 H       1  UNL1        0.2106
     14 H          19.3575   71.2407   -6.9728 H       1  UNL1        0.2105
     15 N          16.0789   72.4455   -3.5141 N.ar    1  UNL1       -0.2551
     16 C          15.1896   73.3034   -4.0447 C.ar    1  UNL1        0.3323
     17 N          14.5345   74.1876   -3.2696 N.ar    1  UNL1       -0.2743
     18 C          14.7682   74.2339   -1.9439 C.ar    1  UNL1        0.2626
     19 C          15.7066   73.3402   -1.3720 C.ar    1  UNL1        0.0795
     20 C          16.3464   72.4606   -2.1716 C.ar    1  UNL1        0.0869
     21 O          14.9679   73.2732   -5.2389 O.2     1  UNL1       -0.2464
     22 O          14.1793   75.0372   -1.2423 O.2     1  UNL1       -0.2670
     23 H          13.8928   74.7965   -3.6688 H       1  UNL1        0.1734
     24 O          20.9364   70.0359   -0.2725 O.3     1  UNL1       -0.2703
     25 P          22.4318   70.5891   -0.0539 P.3     1  UNL1        0.2208
     26 O          23.1368   69.7314    0.9241 O.2     1  UNL1       -0.5170
     27 O          23.2231   70.5649   -1.4565 O.3     1  UNL1       -0.4371
     28 O          22.3710   72.0988    0.5005 O.3     1  UNL1       -0.2858
     29 C          21.1252   72.2398    1.1846 C.3     1  UNL1        0.2704
     30 C          20.5184   73.6059    0.8608 C.3     1  UNL1        0.1967
     31 C          21.4987   74.7015    1.2911 C.3     1  UNL1        0.1715
     32 C          21.8633   74.4821    2.7637 C.3     1  UNL1        0.1694
     33 C          22.3704   73.0490    2.9427 C.3     1  UNL1        0.1761
     34 O          20.2776   73.7019   -0.5442 O.3     1  UNL1       -0.3775
     35 O          20.8868   75.9831    1.1313 O.3     1  UNL1       -0.3794
     36 O          20.7086   74.6908    3.5780 O.3     1  UNL1       -0.3794
     37 O          21.3409   72.1264    2.5893 O.3     1  UNL1       -0.3258
     38 H          19.6629   72.9909   -0.7710 H       1  UNL1        0.2106
     39 H          20.6644   76.0723    0.1959 H       1  UNL1        0.2105
     40 H          20.4218   75.6012    3.4290 H       1  UNL1        0.2105
     41 C          22.7697   72.8299    4.4038 C.3     1  UNL1        0.1693
     42 O          21.5977   72.5993    5.1875 O.3     1  UNL1       -0.3794
     43 H          21.8924   72.4656    6.0989 H       1  UNL1        0.2105
@<TRIPOS>BOND
     1    15    16   ar
     2    15    20   ar
     3    15     6    1
     4    16    17   ar
     5    16    21    2
     6    17    18   ar
     7    17    23    1
     8    18    19   ar
     9    18    22    2
    10    19    20   ar
    11     6     7    1
    12     6    11    1
    13     7     8    1
    14     7     9    1
    15     8    13    1
    16     9    10    1
    17     9    12    1
    18    10    11    1
    19    10     5    1
    20    12    14    1
    21     5     4    1
    22     4     1    1
    23     1     2    2
    24     1     3    1
    25     1    24    1
    26    24    25    1
    27    25    26    2
    28    25    27    1
    29    25    28    1
    30    28    29    1
    31    29    30    1
    32    29    37    1
    33    30    31    1
    34    30    34    1
    35    31    32    1
    36    31    35    1
    37    32    33    1
    38    32    36    1
    39    33    41    1
    40    33    37    1
    41    41    42    1
    42    34    38    1
    43    35    39    1
    44    36    40    1
    45    42    43    1
@<TRIPOS>MOLECULE
GDU
 43 45 0 0 0
SMALL
GASTEIGER

@<TRIPOS>ATOM
      1 P          23.0842   74.8106   -4.6536 P.3     1  UNL1        0.2189
      2 O          23.5205   75.2454   -5.9990 O.2     1  UNL1       -0.5170
      3 O          24.0887   73.6786   -4.1037 O.3     1  UNL1       -0.4371
      4 O          23.0947   76.0695   -3.6527 O.3     1  UNL1       -0.3112
      5 C          21.7708   76.1946   -3.1312 C.3     1  UNL1        0.1811
      6 C          22.1633   74.2461   -0.1351 C.3     1  UNL1        0.2383
      7 C          23.5692   74.8442   -0.3973 C.3     1  UNL1        0.1895
      8 O          24.2690   75.0592    0.8304 O.3     1  UNL1       -0.3779
      9 C          23.2261   76.1929   -1.0819 C.3     1  UNL1        0.1713
     10 C          21.7961   75.9884   -1.6156 C.3     1  UNL1        0.1764
     11 O          21.4069   74.6405   -1.2995 O.3     1  UNL1       -0.3308
     12 O          23.2649   77.2595   -0.1318 O.3     1  UNL1       -0.3794
     13 H          25.1318   75.4302    0.5983 H       1  UNL1        0.2106
     14 H          24.1690   77.2986    0.2086 H       1  UNL1        0.2105
     15 N          22.2316   72.7874   -0.0342 N.ar    1  UNL1       -0.2551
     16 C          22.3250   72.2062    1.1749 C.ar    1  UNL1        0.3323
     17 N          22.3857   70.8670    1.2955 N.ar    1  UNL1       -0.2743
     18 C          22.3636   70.0838    0.1999 C.ar    1  UNL1        0.2626
     19 C          22.2714   70.6823   -1.0805 C.ar    1  UNL1        0.0795
     20 C          22.2076   72.0276   -1.1728 C.ar    1  UNL1        0.0869
     21 O          22.3455   72.8996    2.1723 O.2     1  UNL1       -0.2464
     22 O          22.4233   68.8717    0.3079 O.2     1  UNL1       -0.2670
     23 H          22.4485   70.4643    2.1763 H       1  UNL1        0.1734
     24 O          21.5944   74.2066   -4.7427 O.3     1  UNL1       -0.2703
     25 P          21.4250   73.5988   -6.2232 P.3     1  UNL1        0.2208
     26 O          21.1251   74.6922   -7.1738 O.2     1  UNL1       -0.5170
     27 O          22.7909   72.8666   -6.6619 O.3     1  UNL1       -0.4371
     28 O          20.2194   72.5327   -6.2322 O.3     1  UNL1       -0.2858
     29 C          19.1082   73.1683   -6.8654 C.3     1  UNL1        0.2704
     30 C          17.8118   72.7190   -6.1896 C.3     1  UNL1        0.1967
     31 C          17.6961   71.1953   -6.2960 C.3     1  UNL1        0.1715
     32 C          17.8365   70.7949   -7.7690 C.3     1  UNL1        0.1694
     33 C          19.1331   71.3890   -8.3248 C.3     1  UNL1        0.1761
     34 O          17.8308   73.1041   -4.8139 O.3     1  UNL1       -0.3775
     35 O          16.4231   70.7747   -5.8009 O.3     1  UNL1       -0.3794
     36 O          16.7211   71.2942   -8.5083 O.3     1  UNL1       -0.3794
     37 O          19.0829   72.8128   -8.2458 O.3     1  UNL1       -0.3258
     38 H          17.9117   74.0675   -4.7949 H       1  UNL1        0.2106
     39 H          16.3742   71.0570   -4.8789 H       1  UNL1        0.2105
     40 H          15.9291   70.8993   -8.1208 H       1  UNL1        0.2105
     41 C          19.3003   70.9665   -9.7862 C.3     1  UNL1        0.1693
     42 O          18.3098   69.9910  -10.1154 O.3     1  UNL1       -0.3794
     43 H          18.4491   69.7525  -11.0422 H       1  UNL1        0.2105
@<TRIPOS>BOND
     1    15    16   ar
     2    15    20   ar
     3    15     6    1
     4    16    17   ar
     5    16    21    2
     6    17    18   ar
     7    17    23    1
     8    18    19   ar
     9    18    22    2
    10    19    20   ar
    11     6     7    1
    12     6    11    1
    13     7     8    1
    14     7     9    1
    15     8    13    1
    16     9    10    1
    17     9    12    1
    18    10    11    1
    19    10     5    1
    20    12    14    1
    21     5     4    1
    22     4     1    1
    23     1     2    2
    24     1     3    1
    25     1    24    1
    26    24    25    1
    27    25    26    2
    28    25    27    1
    29    25    28    1
    30    28    29    1
    31    29    30    1
    32    29    37    1
    33    30    31    1
    34    30    34    1
    35    31    32    1
    36    31    35    1
    37    32    33    1
    38    32    36    1
    39    33    41    1
    40    33    37    1
    41    41    42    1
    42    34    38    1
    43    35    39    1
    44    36    40    1
    45    42    43    1
@<TRIPOS>MOLECULE
GDU
 43 45 0 0 0
SMALL
GASTEIGER

@<TRIPOS>ATOM
      1 P          22.8313   71.7381   -3.2266 P.3     1  UNL1        0.2189
      2 O          23.4987   70.4340   -3.0185 O.2     1  UNL1       -0.5170
      3 O          23.6070   72.5610   -4.3729 O.3     1  UNL1       -0.4371
      4 O          21.3070   71.4951   -3.6787 O.3     1  UNL1       -0.3112
      5 C          20.8900   72.6699   -4.3761 C.3     1  UNL1        0.1811
      6 C          19.3762   72.7942   -7.6350 C.3     1  UNL1        0.2383
      7 C          20.3115   74.0298   -7.5930 C.3     1  UNL1        0.1895
      8 O          20.8096   74.3369   -8.8972 O.3     1  UNL1       -0.3779
      9 C          21.4542   73.5409   -6.6654 C.3     1  UNL1        0.1713
     10 C          20.8241   72.3782   -5.8764 C.3     1  UNL1        0.1764
     11 O          19.4520   72.2686   -6.2929 O.3     1  UNL1       -0.3308
     12 O          22.5654   73.0849   -7.4394 O.3     1  UNL1       -0.3794
     13 H          21.3815   75.1113   -8.8020 H       1  UNL1        0.2106
     14 H          22.8776   73.8415   -7.9540 H       1  UNL1        0.2105
     15 N          18.0049   73.1933   -7.9561 N.ar    1  UNL1       -0.2551
     16 C          17.6364   73.3395   -9.2410 C.ar    1  UNL1        0.3323
     17 N          16.3808   73.7021   -9.5633 N.ar    1  UNL1       -0.2743
     18 C          15.4712   73.9351   -8.5976 C.ar    1  UNL1        0.2626
     19 C          15.8468   73.7906   -7.2396 C.ar    1  UNL1        0.0795
     20 C          17.1114   73.4218   -6.9443 C.ar    1  UNL1        0.0869
     21 O          18.4458   73.1323  -10.1231 O.2     1  UNL1       -0.2464
     22 O          14.3358   74.2680   -8.8883 O.2     1  UNL1       -0.2670
     23 H          16.1310   73.7987  -10.4961 H       1  UNL1        0.1734
     24 O          22.8577   72.5785   -1.8535 O.3     1  UNL1       -0.2703
     25 P          22.4134   71.5702   -0.6806 P.3     1  UNL1        0.2208
     26 O          21.0181   71.1336   -0.9079 O.2     1  UNL1       -0.5170
     27 O          23.3842   70.2850   -0.6818 O.3     1  UNL1       -0.4371
     28 O          22.5178   72.3187    0.7403 O.3     1  UNL1       -0.2858
     29 C          21.1833   72.4835    1.2216 C.3     1  UNL1        0.2704
     30 C          20.6928   73.8936    0.8894 C.3     1  UNL1        0.1967
     31 C          21.6320   74.9142    1.5394 C.3     1  UNL1        0.1715
     32 C          21.7410   74.5970    3.0351 C.3     1  UNL1        0.1694
     33 C          22.1544   73.1329    3.2045 C.3     1  UNL1        0.1761
     34 O          20.6898   74.0779   -0.5273 O.3     1  UNL1       -0.3775
     35 O          21.1062   76.2313    1.3626 O.3     1  UNL1       -0.3794
     36 O          20.4776   74.8176    3.6636 O.3     1  UNL1       -0.3794
     37 O          21.1609   72.2830    2.6329 O.3     1  UNL1       -0.3258
     38 H          20.0928   73.4117   -0.8941 H       1  UNL1        0.2106
     39 H          21.0440   76.3824    0.4110 H       1  UNL1        0.2105
     40 H          20.2556   75.7478    3.5269 H       1  UNL1        0.2105
     41 C          22.2995   72.8148    4.6944 C.3     1  UNL1        0.1693
     42 O          21.0104   72.8233    5.3101 O.3     1  UNL1       -0.3794
     43 H          21.1456   72.6182    6.2455 H       1  UNL1        0.2105
@<TRIPOS>BOND
     1    15    16   ar
     2    15    20   ar
     3    15     6    1
     4    16    17   ar
     5    16    21    2
     6    17    18   ar
     7    17    23    1
     8    18    19   ar
     9    18    22    2
    10    19    20   ar
    11     6     7    1
    12     6    11    1
    13     7     8    1
    14     7     9    1
    15     8    13    1
    16     9    10    1
    17     9    12    1
    18    10    11    1
    19    10     5    1
    20    12    14    1
    21     5     4    1
    22     4     1    1
    23     1     2    2
    24     1     3    1
    25     1    24    1
    26    24    25    1
    27    25    26    2
    28    25    27    1
    29    25    28    1
    30    28    29    1
    31    29    30    1
    32    29    37    1
    33    30    31    1
    34    30    34    1
    35    31    32    1
    36    31    35    1
    37    32    33    1
    38    32    36    1
    39    33    41    1
    40    33    37    1
    41    41    42    1
    42    34    38    1
    43    35    39    1
    44    36    40    1
    45    42    43    1
@<TRIPOS>MOLECULE
GDU
 43 45 0 0 0
SMALL
GASTEIGER

@<TRIPOS>ATOM
      1 P          22.9773   73.1207   -3.5573 P.3     1  UNL1        0.2189
      2 O          24.3681   73.5223   -3.8638 O.2     1  UNL1       -0.5170
      3 O          22.9798   72.0594   -2.3463 O.3     1  UNL1       -0.4371
      4 O          22.1251   74.4171   -3.1331 O.3     1  UNL1       -0.3112
      5 C          22.4211   74.6756   -1.7597 C.3     1  UNL1        0.1811
      6 C          20.6536   74.1675    1.3298 C.3     1  UNL1        0.2383
      7 C          20.5736   75.6957    1.0826 C.3     1  UNL1        0.1895
      8 O          19.3676   76.2376    1.6257 O.3     1  UNL1       -0.3779
      9 C          20.5670   75.7743   -0.4663 C.3     1  UNL1        0.1713
     10 C          21.1717   74.4299   -0.9119 C.3     1  UNL1        0.1764
     11 O          21.5237   73.7009    0.2768 O.3     1  UNL1       -0.3308
     12 O          19.2312   75.9156   -0.9537 O.3     1  UNL1       -0.3794
     13 H          19.3797   77.1868    1.4393 H       1  UNL1        0.2106
     14 H          18.8879   76.7446   -0.5935 H       1  UNL1        0.2105
     15 N          21.2357   73.8850    2.6429 N.ar    1  UNL1       -0.2551
     16 C          21.3307   72.6137    3.0707 C.ar    1  UNL1        0.3323
     17 N          21.8650   72.3265    4.2723 N.ar    1  UNL1       -0.2743
     18 C          22.3065   73.3148    5.0739 C.ar    1  UNL1        0.2626
     19 C          22.2075   74.6591    4.6389 C.ar    1  UNL1        0.0795
     20 C          21.6713   74.9188    3.4274 C.ar    1  UNL1        0.0869
     21 O          20.9372   71.7115    2.3585 O.2     1  UNL1       -0.2464
     22 O          22.7859   73.0562    6.1638 O.2     1  UNL1       -0.2670
     23 H          21.9297   71.4030    4.5633 H       1  UNL1        0.1734
     24 O          22.3156   72.4446   -4.8601 O.3     1  UNL1       -0.2703
     25 P          20.8865   71.8594   -4.4072 P.3     1  UNL1        0.2208
     26 O          21.0900   70.7198   -3.4858 O.2     1  UNL1       -0.5170
     27 O          20.0480   73.0121   -3.6573 O.3     1  UNL1       -0.4371
     28 O          20.0729   71.3634   -5.7042 O.3     1  UNL1       -0.2858
     29 C          18.9883   72.2743   -5.8871 C.3     1  UNL1        0.2704
     30 C          17.6662   71.5507   -5.6265 C.3     1  UNL1        0.1967
     31 C          17.5470   70.3671   -6.5915 C.3     1  UNL1        0.1715
     32 C          17.7384   70.8808   -8.0230 C.3     1  UNL1        0.1694
     33 C          19.0570   71.6541   -8.1023 C.3     1  UNL1        0.1761
     34 O          17.6377   71.0764   -4.2791 O.3     1  UNL1       -0.3775
     35 O          16.2551   69.7701   -6.4618 O.3     1  UNL1       -0.3794
     36 O          16.6527   71.7411   -8.3711 O.3     1  UNL1       -0.3794
     37 O          19.0109   72.7757   -7.2215 O.3     1  UNL1       -0.3258
     38 H          17.7225   71.8523   -3.7084 H       1  UNL1        0.2106
     39 H          16.1745   69.4735   -5.5464 H       1  UNL1        0.2105
     40 H          15.8454   71.2150   -8.3019 H       1  UNL1        0.2105
     41 C          19.2745   72.1423   -9.5363 C.3     1  UNL1        0.1693
     42 O          18.7590   71.1741  -10.4516 O.3     1  UNL1       -0.3794
     43 H          18.9148   71.5193  -11.3414 H       1  UNL1        0.2105
@<TRIPOS>BOND
     1    15    16   ar
     2    15    20   ar
     3    15     6    1
     4    16    17   ar
     5    16    21    2
     6    17    18   ar
     7    17    23    1
     8    18    19   ar
     9    18    22    2
    10    19    20   ar
    11     6     7    1
    12     6    11    1
    13     7     8    1
    14     7     9    1
    15     8    13    1
    16     9    10    1
    17     9    12    1
    18    10    11    1
    19    10     5    1
    20    12    14    1
    21     5     4    1
    22     4     1    1
    23     1     2    2
    24     1     3    1
    25     1    24    1
    26    24    25    1
    27    25    26    2
    28    25    27    1
    29    25    28    1
    30    28    29    1
    31    29    30    1
    32    29    37    1
    33    30    31    1
    34    30    34    1
    35    31    32    1
    36    31    35    1
    37    32    33    1
    38    32    36    1
    39    33    41    1
    40    33    37    1
    41    41    42    1
    42    34    38    1
    43    35    39    1
    44    36    40    1
    45    42    43    1
@<TRIPOS>MOLECULE
GDU
 43 45 0 0 0
SMALL
GASTEIGER

@<TRIPOS>ATOM
      1 P          22.3660   71.9096   -3.6147 P.3     1  UNL1        0.2189
      2 O          23.6192   72.4921   -4.1436 O.2     1  UNL1       -0.5170
      3 O          22.6648   70.4428   -3.0212 O.3     1  UNL1       -0.4371
      4 O          21.7858   72.8525   -2.4481 O.3     1  UNL1       -0.3112
      5 C          21.4619   71.9994   -1.3491 C.3     1  UNL1        0.1811
      6 C          23.1607   72.1456    1.8163 C.3     1  UNL1        0.2383
      7 C          22.6888   70.6740    1.6956 C.3     1  UNL1        0.1895
      8 O          23.5904   69.7925    2.3690 O.3     1  UNL1       -0.3779
      9 C          22.7319   70.4438    0.1625 C.3     1  UNL1        0.1713
     10 C          22.6779   71.8638   -0.4309 C.3     1  UNL1        0.1764
     11 O          22.5658   72.7855    0.6674 O.3     1  UNL1       -0.3308
     12 O          23.9437   69.7845   -0.2099 O.3     1  UNL1       -0.3794
     13 H          23.2412   68.8974    2.2567 H       1  UNL1        0.2106
     14 H          23.9459   68.9280    0.2387 H       1  UNL1        0.2105
     15 N          22.6665   72.7480    3.0556 N.ar    1  UNL1       -0.2551
     16 C          21.3803   72.5819    3.4111 C.ar    1  UNL1        0.3323
     17 N          20.9016   73.1222    4.5473 N.ar    1  UNL1       -0.2743
     18 C          21.7059   73.8503    5.3455 C.ar    1  UNL1        0.2626
     19 C          23.0616   74.0384    4.9808 C.ar    1  UNL1        0.0795
     20 C          23.5168   73.4819    3.8382 C.ar    1  UNL1        0.0869
     21 O          20.6429   71.9273    2.7014 O.2     1  UNL1       -0.2464
     22 O          21.2724   74.3437    6.3717 O.2     1  UNL1       -0.2670
     23 H          19.9717   72.9886    4.7905 H       1  UNL1        0.1734
     24 O          21.2849   71.7963   -4.8025 O.3     1  UNL1       -0.2703
     25 P          21.4951   73.0809   -5.7489 P.3     1  UNL1        0.2208
     26 O          21.6992   74.2828   -4.9105 O.2     1  UNL1       -0.5170
     27 O          22.7873   72.8533   -6.6831 O.3     1  UNL1       -0.4371
     28 O          20.1946   73.2855   -6.6745 O.3     1  UNL1       -0.2858
     29 C          19.6125   71.9951   -6.8634 C.3     1  UNL1        0.2704
     30 C          19.5246   71.6902   -8.3596 C.3     1  UNL1        0.1967
     31 C          18.6776   72.7704   -9.0396 C.3     1  UNL1        0.1715
     32 C          17.3312   72.8668   -8.3133 C.3     1  UNL1        0.1694
     33 C          17.5858   73.0846   -6.8197 C.3     1  UNL1        0.1761
     34 O          20.8368   71.6827   -8.9245 O.3     1  UNL1       -0.3775
     35 O          18.4634   72.4213  -10.4088 O.3     1  UNL1       -0.3794
     36 O          16.5965   71.6573   -8.5063 O.3     1  UNL1       -0.3794
     37 O          18.3083   71.9751   -6.2878 O.3     1  UNL1       -0.3258
     38 H          21.3354   70.9948   -8.4628 H       1  UNL1        0.2106
     39 H          19.3341   72.3603  -10.8216 H       1  UNL1        0.2105
     40 H          16.4650   71.5586   -9.4583 H       1  UNL1        0.2105
     41 C          16.2472   73.2165   -6.0898 C.3     1  UNL1        0.1693
     42 O          15.8323   71.9322   -5.6215 O.3     1  UNL1       -0.3794
     43 H          14.9876   72.0591   -5.1680 H       1  UNL1        0.2105
@<TRIPOS>BOND
     1    15    16   ar
     2    15    20   ar
     3    15     6    1
     4    16    17   ar
     5    16    21    2
     6    17    18   ar
     7    17    23    1
     8    18    19   ar
     9    18    22    2
    10    19    20   ar
    11     6     7    1
    12     6    11    1
    13     7     8    1
    14     7     9    1
    15     8    13    1
    16     9    10    1
    17     9    12    1
    18    10    11    1
    19    10     5    1
    20    12    14    1
    21     5     4    1
    22     4     1    1
    23     1     2    2
    24     1     3    1
    25     1    24    1
    26    24    25    1
    27    25    26    2
    28    25    27    1
    29    25    28    1
    30    28    29    1
    31    29    30    1
    32    29    37    1
    33    30    31    1
    34    30    34    1
    35    31    32    1
    36    31    35    1
    37    32    33    1
    38    32    36    1
    39    33    41    1
    40    33    37    1
    41    41    42    1
    42    34    38    1
    43    35    39    1
    44    36    40    1
    45    42    43    1
@<TRIPOS>MOLECULE
GDU
 43 45 0 0 0
SMALL
GASTEIGER

@<TRIPOS>ATOM
      1 P          20.4970   70.5102   -2.2459 P.3     1  UNL1        0.2189
      2 O          20.9730   69.2191   -2.7900 O.2     1  UNL1       -0.5170
      3 O          21.4111   71.7046   -2.8211 O.3     1  UNL1       -0.4371
      4 O          18.9675   70.7463   -2.6838 O.3     1  UNL1       -0.3112
      5 C          18.8065   70.1409   -3.9676 C.3     1  UNL1        0.1811
      6 C          18.7867   72.5051   -6.6764 C.3     1  UNL1        0.2383
      7 C          18.4411   71.1482   -7.3416 C.3     1  UNL1        0.1895
      8 O          17.5906   71.3378   -8.4746 O.3     1  UNL1       -0.3779
      9 C          17.6897   70.4103   -6.2032 C.3     1  UNL1        0.1713
     10 C          18.1446   71.1354   -4.9230 C.3     1  UNL1        0.1764
     11 O          19.0933   72.1435   -5.3130 O.3     1  UNL1       -0.3308
     12 O          16.2765   70.5293   -6.3783 O.3     1  UNL1       -0.3794
     13 H          17.4143   70.4599   -8.8410 H       1  UNL1        0.2106
     14 H          16.0625   70.1094   -7.2224 H       1  UNL1        0.2105
     15 N          19.9494   73.1170   -7.3216 N.ar    1  UNL1       -0.2551
     16 C          19.7697   74.0357   -8.2870 C.ar    1  UNL1        0.3323
     17 N          20.8218   74.6161   -8.8938 N.ar    1  UNL1       -0.2743
     18 C          22.0785   74.2765   -8.5480 C.ar    1  UNL1        0.2626
     19 C          22.2830   73.3061   -7.5367 C.ar    1  UNL1        0.0795
     20 C          21.2102   72.7427   -6.9416 C.ar    1  UNL1        0.0869
     21 O          18.6420   74.3526   -8.6093 O.2     1  UNL1       -0.2464
     22 O          23.0315   74.7978   -9.1000 O.2     1  UNL1       -0.2670
     23 H          20.6736   75.2803   -9.5855 H       1  UNL1        0.1734
     24 O          20.5987   70.4846   -0.6392 O.3     1  UNL1       -0.2703
     25 P          22.1614   70.3689   -0.2723 P.3     1  UNL1        0.2208
     26 O          22.4213   69.0626    0.3719 O.2     1  UNL1       -0.5170
     27 O          23.0385   70.4870   -1.6181 O.3     1  UNL1       -0.4371
     28 O          22.5662   71.5558    0.7364 O.3     1  UNL1       -0.2858
     29 C          21.6151   72.6042    0.5466 C.3     1  UNL1        0.2704
     30 C          22.3356   73.8642    0.0644 C.3     1  UNL1        0.1967
     31 C          23.3848   74.2677    1.1050 C.3     1  UNL1        0.1715
     32 C          22.6989   74.3906    2.4703 C.3     1  UNL1        0.1694
     33 C          21.9519   73.0888    2.7710 C.3     1  UNL1        0.1761
     34 O          22.9755   73.6009   -1.1855 O.3     1  UNL1       -0.3775
     35 O          23.9640   75.5226    0.7412 O.3     1  UNL1       -0.3794
     36 O          21.7771   75.4813    2.4454 O.3     1  UNL1       -0.3794
     37 O          20.9498   72.8688    1.7795 O.3     1  UNL1       -0.3258
     38 H          22.2801   73.3444   -1.8064 H       1  UNL1        0.2106
     39 H          24.3719   75.4017   -0.1256 H       1  UNL1        0.2105
     40 H          22.2893   76.2762    2.2475 H       1  UNL1        0.2105
     41 C          21.2915   73.1882    4.1480 C.3     1  UNL1        0.1693
     42 O          22.0072   72.3740    5.0785 O.3     1  UNL1       -0.3794
     43 H          21.5606   72.4651    5.9314 H       1  UNL1        0.2105
@<TRIPOS>BOND
     1    15    16   ar
     2    15    20   ar
     3    15     6    1
     4    16    17   ar
     5    16    21    2
     6    17    18   ar
     7    17    23    1
     8    18    19   ar
     9    18    22    2
    10    19    20   ar
    11     6     7    1
    12     6    11    1
    13     7     8    1
    14     7     9    1
    15     8    13    1
    16     9    10    1
    17     9    12    1
    18    10    11    1
    19    10     5    1
    20    12    14    1
    21     5     4    1
    22     4     1    1
    23     1     2    2
    24     1     3    1
    25     1    24    1
    26    24    25    1
    27    25    26    2
    28    25    27    1
    29    25    28    1
    30    28    29    1
    31    29    30    1
    32    29    37    1
    33    30    31    1
    34    30    34    1
    35    31    32    1
    36    31    35    1
    37    32    33    1
    38    32    36    1
    39    33    41    1
    40    33    37    1
    41    41    42    1
    42    34    38    1
    43    35    39    1
    44    36    40    1
    45    42    43    1
@<TRIPOS>MOLECULE
GDU
 43 45 0 0 0
SMALL
GASTEIGER

@<TRIPOS>ATOM
      1 P          18.0756   70.1164   -3.4092 P.3     1  UNL1        0.2189
      2 O          18.4849   69.1459   -2.3700 O.2     1  UNL1       -0.5170
      3 O          16.8271   70.9811   -2.8739 O.3     1  UNL1       -0.4371
      4 O          19.3054   71.0983   -3.7413 O.3     1  UNL1       -0.3112
      5 C          19.5066   71.9146   -2.5864 C.3     1  UNL1        0.1811
      6 C          22.4228   72.3104   -0.5209 C.3     1  UNL1        0.2383
      7 C          22.3181   70.7820   -0.7576 C.3     1  UNL1        0.1895
      8 O          23.6129   70.1762   -0.7585 O.3     1  UNL1       -0.3779
      9 C          21.6751   70.7148   -2.1673 C.3     1  UNL1        0.1713
     10 C          21.0059   72.0911   -2.3393 C.3     1  UNL1        0.1764
     11 O          21.2170   72.8278   -1.1224 O.3     1  UNL1       -0.3308
     12 O          22.6779   70.5105   -3.1646 O.3     1  UNL1       -0.3794
     13 H          23.4781   69.2303   -0.9095 H       1  UNL1        0.2106
     14 H          23.0993   69.6627   -2.9685 H       1  UNL1        0.2105
     15 N          22.4551   72.6117    0.9112 N.ar    1  UNL1       -0.2551
     16 C          22.0444   71.6868    1.7967 C.ar    1  UNL1        0.3323
     17 N          22.0673   71.9373    3.1191 N.ar    1  UNL1       -0.2743
     18 C          22.4953   73.1290    3.5781 C.ar    1  UNL1        0.2626
     19 C          22.9256   74.1150    2.6566 C.ar    1  UNL1        0.0795
     20 C          22.8963   73.8360    1.3361 C.ar    1  UNL1        0.0869
     21 O          21.6560   70.6070    1.3977 O.2     1  UNL1       -0.2464
     22 O          22.5119   73.3584    4.7746 O.2     1  UNL1       -0.2670
     23 H          21.7712   71.2566    3.7442 H       1  UNL1        0.1734
     24 O          17.6450   69.3236   -4.7428 O.3     1  UNL1       -0.2703
     25 P          17.1137   70.4247   -5.7893 P.3     1  UNL1        0.2208
     26 O          16.1205   69.8057   -6.6946 O.2     1  UNL1       -0.5170
     27 O          16.4240   71.6388   -4.9866 O.3     1  UNL1       -0.4371
     28 O          18.3502   70.9874   -6.6521 O.3     1  UNL1       -0.2858
     29 C          18.2269   72.4100   -6.6751 C.3     1  UNL1        0.2704
     30 C          17.7160   72.8547   -8.0465 C.3     1  UNL1        0.1967
     31 C          18.6974   72.3794   -9.1223 C.3     1  UNL1        0.1715
     32 C          20.1016   72.8741   -8.7575 C.3     1  UNL1        0.1694
     33 C          20.4326   72.4259   -7.3319 C.3     1  UNL1        0.1761
     34 O          16.4282   72.2840   -8.2855 O.3     1  UNL1       -0.3775
     35 O          18.3129   72.9116  -10.3917 O.3     1  UNL1       -0.3794
     36 O          20.1416   74.2996   -8.8368 O.3     1  UNL1       -0.3794
     37 O          19.4991   72.9998   -6.4179 O.3     1  UNL1       -0.3258
     38 H          15.8465   72.6037   -7.5824 H       1  UNL1        0.2106
     39 H          17.4226   72.5853  -10.5739 H       1  UNL1        0.2105
     40 H          19.9220   74.5356   -9.7475 H       1  UNL1        0.2105
     41 C          21.8467   72.8854   -6.9699 C.3     1  UNL1        0.1693
     42 O          22.1487   72.4858   -5.6319 O.3     1  UNL1       -0.3794
     43 H          23.0462   72.7930   -5.4439 H       1  UNL1        0.2105
@<TRIPOS>BOND
     1    15    16   ar
     2    15    20   ar
     3    15     6    1
     4    16    17   ar
     5    16    21    2
     6    17    18   ar
     7    17    23    1
     8    18    19   ar
     9    18    22    2
    10    19    20   ar
    11     6     7    1
    12     6    11    1
    13     7     8    1
    14     7     9    1
    15     8    13    1
    16     9    10    1
    17     9    12    1
    18    10    11    1
    19    10     5    1
    20    12    14    1
    21     5     4    1
    22     4     1    1
    23     1     2    2
    24     1     3    1
    25     1    24    1
    26    24    25    1
    27    25    26    2
    28    25    27    1
    29    25    28    1
    30    28    29    1
    31    29    30    1
    32    29    37    1
    33    30    31    1
    34    30    34    1
    35    31    32    1
    36    31    35    1
    37    32    33    1
    38    32    36    1
    39    33    41    1
    40    33    37    1
    41    41    42    1
    42    34    38    1
    43    35    39    1
    44    36    40    1
    45    42    43    1
@<TRIPOS>MOLECULE
GDU
 43 45 0 0 0
SMALL
GASTEIGER

@<TRIPOS>ATOM
      1 P          21.7973   73.7567   -5.4423 P.3     1  UNL1        0.2189
      2 O          22.8683   72.8326   -5.8764 O.2     1  UNL1       -0.5170
      3 O          21.7735   75.0431   -6.4106 O.3     1  UNL1       -0.4371
      4 O          20.3774   73.0047   -5.5139 O.3     1  UNL1       -0.3112
      5 C          20.6443   71.6509   -5.8832 C.3     1  UNL1        0.1811
      6 C          17.9427   72.1088   -8.2111 C.3     1  UNL1        0.2383
      7 C          19.2169   72.0856   -9.0935 C.3     1  UNL1        0.1895
      8 O          18.9318   71.5475  -10.3867 O.3     1  UNL1       -0.3779
      9 C          20.1488   71.1385   -8.2935 C.3     1  UNL1        0.1713
     10 C          19.5750   71.1679   -6.8648 C.3     1  UNL1        0.1764
     11 O          18.4642   72.0813   -6.8654 O.3     1  UNL1       -0.3308
     12 O          20.0992   69.8161   -8.8327 O.3     1  UNL1       -0.3794
     13 H          19.7618   71.5611  -10.8836 H       1  UNL1        0.2106
     14 H          20.4143   69.8736   -9.7449 H       1  UNL1        0.2105
     15 N          17.1752   73.3338   -8.4418 N.ar    1  UNL1       -0.2551
     16 C          17.8189   74.4834   -8.7107 C.ar    1  UNL1        0.3323
     17 N          17.1368   75.6229   -8.9302 N.ar    1  UNL1       -0.2743
     18 C          15.7911   75.6315   -8.8738 C.ar    1  UNL1        0.2626
     19 C          15.0998   74.4292   -8.5859 C.ar    1  UNL1        0.0795
     20 C          15.8083   73.2997   -8.3740 C.ar    1  UNL1        0.0869
     21 O          19.0326   74.4911   -8.7653 O.2     1  UNL1       -0.2464
     22 O          15.1730   76.6634   -9.0676 O.2     1  UNL1       -0.2670
     23 H          17.6176   76.4425   -9.1272 H       1  UNL1        0.1734
     24 O          22.0793   74.2306   -3.9295 O.3     1  UNL1       -0.2703
     25 P          23.3040   73.3413   -3.3826 P.3     1  UNL1        0.2208
     26 O          23.2108   71.9755   -3.9438 O.2     1  UNL1       -0.5170
     27 O          24.6973   74.0121   -3.8332 O.3     1  UNL1       -0.4371
     28 O          23.2400   73.2680   -1.7762 O.3     1  UNL1       -0.2858
     29 C          21.8909   72.9533   -1.4286 C.3     1  UNL1        0.2704
     30 C          21.3948   73.9392   -0.3697 C.3     1  UNL1        0.1967
     31 C          22.3047   73.8505    0.8593 C.3     1  UNL1        0.1715
     32 C          22.3755   72.3878    1.3122 C.3     1  UNL1        0.1694
     33 C          22.7995   71.5193    0.1253 C.3     1  UNL1        0.1761
     34 O          21.4292   75.2663   -0.8978 O.3     1  UNL1       -0.3775
     35 O          21.7699   74.6561    1.9117 O.3     1  UNL1       -0.3794
     36 O          21.0928   71.9704    1.7818 O.3     1  UNL1       -0.3794
     37 O          21.8314   71.6236   -0.9177 O.3     1  UNL1       -0.3258
     38 H          20.8497   75.2736   -1.6718 H       1  UNL1        0.2106
     39 H          21.7326   75.5619    1.5795 H       1  UNL1        0.2105
     40 H          20.8648   72.5469    2.5227 H       1  UNL1        0.2105
     41 C          22.9066   70.0606    0.5754 C.3     1  UNL1        0.1693
     42 O          21.6164   69.4496    0.5188 O.3     1  UNL1       -0.3794
     43 H          21.7275   68.5337    0.8087 H       1  UNL1        0.2105
@<TRIPOS>BOND
     1    15    16   ar
     2    15    20   ar
     3    15     6    1
     4    16    17   ar
     5    16    21    2
     6    17    18   ar
     7    17    23    1
     8    18    19   ar
     9    18    22    2
    10    19    20   ar
    11     6     7    1
    12     6    11    1
    13     7     8    1
    14     7     9    1
    15     8    13    1
    16     9    10    1
    17     9    12    1
    18    10    11    1
    19    10     5    1
    20    12    14    1
    21     5     4    1
    22     4     1    1
    23     1     2    2
    24     1     3    1
    25     1    24    1
    26    24    25    1
    27    25    26    2
    28    25    27    1
    29    25    28    1
    30    28    29    1
    31    29    30    1
    32    29    37    1
    33    30    31    1
    34    30    34    1
    35    31    32    1
    36    31    35    1
    37    32    33    1
    38    32    36    1
    39    33    41    1
    40    33    37    1
    41    41    42    1
    42    34    38    1
    43    35    39    1
    44    36    40    1
    45    42    43    1
@<TRIPOS>MOLECULE
GDU
 43 45 0 0 0
SMALL
GASTEIGER

@<TRIPOS>ATOM
      1 P          20.9880   70.4894   -2.8562 P.3     1  UNL1        0.2189
      2 O          22.3389   70.0797   -3.2999 O.2     1  UNL1       -0.5170
      3 O          20.9572   72.0838   -2.6330 O.3     1  UNL1       -0.4371
      4 O          19.9084   70.0835   -3.9772 O.3     1  UNL1       -0.3112
      5 C          18.6539   70.6231   -3.5581 C.3     1  UNL1        0.1811
      6 C          18.7571   72.5036   -6.6208 C.3     1  UNL1        0.2383
      7 C          18.4798   71.0456   -7.0686 C.3     1  UNL1        0.1895
      8 O          17.6979   71.0195   -8.2648 O.3     1  UNL1       -0.3779
      9 C          17.6734   70.4850   -5.8683 C.3     1  UNL1        0.1713
     10 C          18.0337   71.4255   -4.7033 C.3     1  UNL1        0.1764
     11 O          18.9852   72.3823   -5.2007 O.3     1  UNL1       -0.3308
     12 O          16.2718   70.5318   -6.1427 O.3     1  UNL1       -0.3794
     13 H          17.5617   70.0883   -8.4887 H       1  UNL1        0.2106
     14 H          16.1189   69.9716   -6.9157 H       1  UNL1        0.2105
     15 N          19.9458   73.0339   -7.2907 N.ar    1  UNL1       -0.2551
     16 C          19.8069   73.8091   -8.3807 C.ar    1  UNL1        0.3323
     17 N          20.8834   74.3122   -9.0131 N.ar    1  UNL1       -0.2743
     18 C          22.1242   74.0373   -8.5671 C.ar    1  UNL1        0.2626
     19 C          22.2859   73.2174   -7.4235 C.ar    1  UNL1        0.0795
     20 C          21.1893   72.7294   -6.8058 C.ar    1  UNL1        0.0869
     21 O          18.6939   74.0661   -8.7945 O.2     1  UNL1       -0.2464
     22 O          23.0993   74.4883   -9.1417 O.2     1  UNL1       -0.2670
     23 H          20.7644   74.8734   -9.7959 H       1  UNL1        0.1734
     24 O          20.6310   69.7481   -1.4722 O.3     1  UNL1       -0.2703
     25 P          21.7005   70.2554   -0.3818 P.3     1  UNL1        0.2208
     26 O          22.0581   69.1353    0.5163 O.2     1  UNL1       -0.5170
     27 O          23.0235   70.7834   -1.1334 O.3     1  UNL1       -0.4371
     28 O          21.0610   71.4537    0.4815 O.3     1  UNL1       -0.2858
     29 C          22.1248   72.3542    0.7932 C.3     1  UNL1        0.2704
     30 C          22.4276   72.2856    2.2908 C.3     1  UNL1        0.1967
     31 C          21.1624   72.6520    3.0727 C.3     1  UNL1        0.1715
     32 C          20.6522   74.0079    2.5717 C.3     1  UNL1        0.1694
     33 C          20.4820   73.9451    1.0518 C.3     1  UNL1        0.1761
     34 O          22.8387   70.9616    2.6359 O.3     1  UNL1       -0.3775
     35 O          21.4667   72.7360    4.4665 O.3     1  UNL1       -0.3794
     36 O          21.5936   75.0273    2.9102 O.3     1  UNL1       -0.3794
     37 O          21.7421   73.6805    0.4369 O.3     1  UNL1       -0.3258
     38 H          23.6317   70.7714    2.1164 H       1  UNL1        0.2106
     39 H          21.7939   71.8679    4.7343 H       1  UNL1        0.2105
     40 H          21.6729   75.0266    3.8730 H       1  UNL1        0.2105
     41 C          19.9401   75.2836    0.5452 C.3     1  UNL1        0.1693
     42 O          21.0315   76.1375    0.1978 O.3     1  UNL1       -0.3794
     43 H          20.6481   76.9679   -0.1165 H       1  UNL1        0.2105
@<TRIPOS>BOND
     1    15    16   ar
     2    15    20   ar
     3    15     6    1
     4    16    17   ar
     5    16    21    2
     6    17    18   ar
     7    17    23    1
     8    18    19   ar
     9    18    22    2
    10    19    20   ar
    11     6     7    1
    12     6    11    1
    13     7     8    1
    14     7     9    1
    15     8    13    1
    16     9    10    1
    17     9    12    1
    18    10    11    1
    19    10     5    1
    20    12    14    1
    21     5     4    1
    22     4     1    1
    23     1     2    2
    24     1     3    1
    25     1    24    1
    26    24    25    1
    27    25    26    2
    28    25    27    1
    29    25    28    1
    30    28    29    1
    31    29    30    1
    32    29    37    1
    33    30    31    1
    34    30    34    1
    35    31    32    1
    36    31    35    1
    37    32    33    1
    38    32    36    1
    39    33    41    1
    40    33    37    1
    41    41    42    1
    42    34    38    1
    43    35    39    1
    44    36    40    1
    45    42    43    1
@<TRIPOS>MOLECULE
GDU
 43 45 0 0 0
SMALL
GASTEIGER

@<TRIPOS>ATOM
      1 P          22.5771   74.9338   -5.6387 P.3     1  UNL1        0.2189
      2 O          22.7963   75.9318   -4.5685 O.2     1  UNL1       -0.5170
      3 O          23.5878   75.2241   -6.8582 O.3     1  UNL1       -0.4371
      4 O          22.8451   73.4575   -5.0595 O.3     1  UNL1       -0.3112
      5 C          22.0794   73.3385   -3.8595 C.3     1  UNL1        0.1811
      6 C          22.5954   71.4082   -0.8703 C.3     1  UNL1        0.2383
      7 C          21.2122   70.9475   -1.3971 C.3     1  UNL1        0.1895
      8 O          20.9647   69.5822   -1.0536 O.3     1  UNL1       -0.3779
      9 C          21.3776   71.1109   -2.9304 C.3     1  UNL1        0.1713
     10 C          22.5420   72.1080   -3.0771 C.3     1  UNL1        0.1764
     11 O          22.9469   72.4952   -1.7526 O.3     1  UNL1       -0.3308
     12 O          21.7043   69.8576   -3.5340 O.3     1  UNL1       -0.3794
     13 H          20.0927   69.3592   -1.4083 H       1  UNL1        0.2106
     14 H          20.9647   69.2605   -3.3576 H       1  UNL1        0.2105
     15 N          22.4928   71.8785    0.5121 N.ar    1  UNL1       -0.2551
     16 C          22.6564   71.0102    1.5258 C.ar    1  UNL1        0.3323
     17 N          22.5706   71.4175    2.8058 N.ar    1  UNL1       -0.2743
     18 C          22.3082   72.7070    3.0930 C.ar    1  UNL1        0.2626
     19 C          22.1278   73.6318    2.0354 C.ar    1  UNL1        0.0795
     20 C          22.2234   73.1975    0.7607 C.ar    1  UNL1        0.0869
     21 O          22.8942   69.8439    1.2823 O.2     1  UNL1       -0.2464
     22 O          22.2256   73.0757    4.2513 O.2     1  UNL1       -0.2670
     23 H          22.6957   70.7780    3.5250 H       1  UNL1        0.1734
     24 O          21.0591   75.0376   -6.1654 O.3     1  UNL1       -0.2703
     25 P          20.9183   74.0032   -7.3902 P.3     1  UNL1        0.2208
     26 O          20.5756   74.7440   -8.6242 O.2     1  UNL1       -0.5170
     27 O          22.3142   73.2278   -7.6006 O.3     1  UNL1       -0.4371
     28 O          19.7577   72.9373   -7.0631 O.3     1  UNL1       -0.2858
     29 C          18.6479   73.2620   -7.9013 C.3     1  UNL1        0.2704
     30 C          17.3666   73.2779   -7.0661 C.3     1  UNL1        0.1967
     31 C          17.1739   71.9013   -6.4225 C.3     1  UNL1        0.1715
     32 C          17.2222   70.8349   -7.5226 C.3     1  UNL1        0.1694
     33 C          18.5164   71.0032   -8.3224 C.3     1  UNL1        0.1761
     34 O          17.4718   74.2738   -6.0472 O.3     1  UNL1       -0.3775
     35 O          15.9084   71.8540   -5.7600 O.3     1  UNL1       -0.3794
     36 O          16.0965   70.9897   -8.3879 O.3     1  UNL1       -0.3794
     37 O          18.5376   72.2901   -8.9385 O.3     1  UNL1       -0.3258
     38 H          17.5990   75.1204   -6.4966 H       1  UNL1        0.2106
     39 H          15.9186   72.5467   -5.0874 H       1  UNL1        0.2105
     40 H          15.3069   70.8818   -7.8419 H       1  UNL1        0.2105
     41 C          18.5910   69.9213   -9.4022 C.3     1  UNL1        0.1693
     42 O          19.0218   70.5062  -10.6324 O.3     1  UNL1       -0.3794
     43 H          19.0562   69.7929  -11.2845 H       1  UNL1        0.2105
@<TRIPOS>BOND
     1    15    16   ar
     2    15    20   ar
     3    15     6    1
     4    16    17   ar
     5    16    21    2
     6    17    18   ar
     7    17    23    1
     8    18    19   ar
     9    18    22    2
    10    19    20   ar
    11     6     7    1
    12     6    11    1
    13     7     8    1
    14     7     9    1
    15     8    13    1
    16     9    10    1
    17     9    12    1
    18    10    11    1
    19    10     5    1
    20    12    14    1
    21     5     4    1
    22     4     1    1
    23     1     2    2
    24     1     3    1
    25     1    24    1
    26    24    25    1
    27    25    26    2
    28    25    27    1
    29    25    28    1
    30    28    29    1
    31    29    30    1
    32    29    37    1
    33    30    31    1
    34    30    34    1
    35    31    32    1
    36    31    35    1
    37    32    33    1
    38    32    36    1
    39    33    41    1
    40    33    37    1
    41    41    42    1
    42    34    38    1
    43    35    39    1
    44    36    40    1
    45    42    43    1
@<TRIPOS>MOLECULE
GDU
 43 45 0 0 0
SMALL
GASTEIGER

@<TRIPOS>ATOM
      1 P          22.5674   73.3494   -3.3525 P.3     1  UNL1        0.2189
      2 O          22.7791   74.7887   -3.0824 O.2     1  UNL1       -0.5170
      3 O          23.8740   72.7402   -4.0699 O.3     1  UNL1       -0.4371
      4 O          22.3061   72.5757   -1.9669 O.3     1  UNL1       -0.3112
      5 C          22.5320   73.5184   -0.9176 C.3     1  UNL1        0.1811
      6 C          22.7141   73.2600    2.6639 C.3     1  UNL1        0.2383
      7 C          21.2551   72.8661    2.3190 C.3     1  UNL1        0.1895
      8 O          20.7448   71.9225    3.2637 O.3     1  UNL1       -0.3779
      9 C          21.4159   72.2164    0.9200 C.3     1  UNL1        0.1713
     10 C          22.7541   72.7739    0.4002 C.3     1  UNL1        0.1764
     11 O          23.2581   73.6817    1.3951 O.3     1  UNL1       -0.3308
     12 O          21.4695   70.7930    1.0334 O.3     1  UNL1       -0.3794
     13 H          19.8381   71.7202    2.9938 H       1  UNL1        0.2106
     14 H          20.6288   70.5108    1.4183 H       1  UNL1        0.2105
     15 N          22.7393   74.3615    3.6276 N.ar    1  UNL1       -0.2551
     16 C          22.2019   75.5491    3.2972 C.ar    1  UNL1        0.3323
     17 N          22.2088   76.5771    4.1661 N.ar    1  UNL1       -0.2743
     18 C          22.7663   76.4343    5.3839 C.ar    1  UNL1        0.2626
     19 C          23.3413   75.1908    5.7436 C.ar    1  UNL1        0.0795
     20 C          23.3170   74.1751    4.8547 C.ar    1  UNL1        0.0869
     21 O          21.6949   75.6928    2.2024 O.2     1  UNL1       -0.2464
     22 O          22.7773   77.3656    6.1694 O.2     1  UNL1       -0.2670
     23 H          21.8126   77.4258    3.9124 H       1  UNL1        0.1734
     24 O          21.2925   73.1675   -4.3189 O.3     1  UNL1       -0.2703
     25 P          20.5640   71.8018   -3.8783 P.3     1  UNL1        0.2208
     26 O          21.5823   70.7564   -3.6344 O.2     1  UNL1       -0.5170
     27 O          19.7212   72.0544   -2.5293 O.3     1  UNL1       -0.4371
     28 O          19.5696   71.3210   -5.0488 O.3     1  UNL1       -0.2858
     29 C          19.3302   72.4558   -5.8822 C.3     1  UNL1        0.2704
     30 C          17.8894   72.9324   -5.6919 C.3     1  UNL1        0.1967
     31 C          16.9348   71.7887   -6.0483 C.3     1  UNL1        0.1715
     32 C          17.2753   71.2868   -7.4560 C.3     1  UNL1        0.1694
     33 C          18.7634   70.9329   -7.5119 C.3     1  UNL1        0.1761
     34 O          17.6888   73.3188   -4.3311 O.3     1  UNL1       -0.3775
     35 O          15.5864   72.2615   -6.0175 O.3     1  UNL1       -0.3794
     36 O          16.9861   72.3091   -8.4107 O.3     1  UNL1       -0.3794
     37 O          19.5452   72.0963   -7.2449 O.3     1  UNL1       -0.3258
     38 H          18.3136   74.0339   -4.1492 H       1  UNL1        0.2106
     39 H          15.4209   72.5770   -5.1201 H       1  UNL1        0.2105
     40 H          16.0427   72.5031   -8.3359 H       1  UNL1        0.2105
     41 C          19.1068   70.3981   -8.9040 C.3     1  UNL1        0.1693
     42 O          20.3520   69.6997   -8.8513 O.3     1  UNL1       -0.3794
     43 H          20.5311   69.3789   -9.7459 H       1  UNL1        0.2105
@<TRIPOS>BOND
     1    15    16   ar
     2    15    20   ar
     3    15     6    1
     4    16    17   ar
     5    16    21    2
     6    17    18   ar
     7    17    23    1
     8    18    19   ar
     9    18    22    2
    10    19    20   ar
    11     6     7    1
    12     6    11    1
    13     7     8    1
    14     7     9    1
    15     8    13    1
    16     9    10    1
    17     9    12    1
    18    10    11    1
    19    10     5    1
    20    12    14    1
    21     5     4    1
    22     4     1    1
    23     1     2    2
    24     1     3    1
    25     1    24    1
    26    24    25    1
    27    25    26    2
    28    25    27    1
    29    25    28    1
    30    28    29    1
    31    29    30    1
    32    29    37    1
    33    30    31    1
    34    30    34    1
    35    31    32    1
    36    31    35    1
    37    32    33    1
    38    32    36    1
    39    33    41    1
    40    33    37    1
    41    41    42    1
    42    34    38    1
    43    35    39    1
    44    36    40    1
    45    42    43    1
@<TRIPOS>MOLECULE
GDU
 43 45 0 0 0
SMALL
GASTEIGER

@<TRIPOS>ATOM
      1 P          21.8220   70.7859   -2.8226 P.3     1  UNL1        0.2189
      2 O          23.2886   70.8081   -3.0177 O.2     1  UNL1       -0.5170
      3 O          21.4148   69.4872   -1.9620 O.3     1  UNL1       -0.4371
      4 O          21.3642   72.1139   -2.0392 O.3     1  UNL1       -0.3112
      5 C          21.7534   73.2258   -2.8471 C.3     1  UNL1        0.1811
      6 C          22.6428   74.7372    0.2917 C.3     1  UNL1        0.2383
      7 C          23.9981   74.3353   -0.3446 C.3     1  UNL1        0.1895
      8 O          25.0353   75.2342    0.0546 O.3     1  UNL1       -0.3779
      9 C          23.6992   74.4737   -1.8601 C.3     1  UNL1        0.1713
     10 C          22.1638   74.3931   -1.9477 C.3     1  UNL1        0.1764
     11 O          21.6670   74.1810   -0.6149 O.3     1  UNL1       -0.3308
     12 O          24.1696   75.7312   -2.3493 O.3     1  UNL1       -0.3794
     13 H          25.8479   74.9299   -0.3730 H       1  UNL1        0.2106
     14 H          25.1267   75.7445   -2.2132 H       1  UNL1        0.2105
     15 N          22.5021   74.1495    1.6250 N.ar    1  UNL1       -0.2551
     16 C          22.5237   72.8128    1.7702 C.ar    1  UNL1        0.3323
     17 N          22.3999   72.2472    2.9854 N.ar    1  UNL1       -0.2743
     18 C          22.2416   73.0157    4.0802 C.ar    1  UNL1        0.2626
     19 C          22.2111   74.4250    3.9417 C.ar    1  UNL1        0.0795
     20 C          22.3418   74.9663    2.7118 C.ar    1  UNL1        0.0869
     21 O          22.6662   72.1067    0.7919 O.2     1  UNL1       -0.2464
     22 O          22.1246   72.5045    5.1800 O.2     1  UNL1       -0.2670
     23 H          22.4220   71.2809    3.0723 H       1  UNL1        0.1734
     24 O          21.0917   70.7284   -4.2564 O.3     1  UNL1       -0.2703
     25 P          19.6140   70.1428   -4.0042 P.3     1  UNL1        0.2208
     26 O          19.7014   68.6970   -3.7025 O.2     1  UNL1       -0.5170
     27 O          18.9380   70.9103   -2.7599 O.3     1  UNL1       -0.4371
     28 O          18.7160   70.3638   -5.3214 O.3     1  UNL1       -0.2858
     29 C          19.1137   71.6121   -5.8901 C.3     1  UNL1        0.2704
     30 C          17.8871   72.5112   -6.0528 C.3     1  UNL1        0.1967
     31 C          16.8683   71.8065   -6.9538 C.3     1  UNL1        0.1715
     32 C          17.5630   71.4080   -8.2608 C.3     1  UNL1        0.1694
     33 C          18.8140   70.5902   -7.9303 C.3     1  UNL1        0.1761
     34 O          17.3039   72.7615   -4.7728 O.3     1  UNL1       -0.3775
     35 O          15.7825   72.6921   -7.2350 O.3     1  UNL1       -0.3794
     36 O          17.9318   72.5834   -8.9835 O.3     1  UNL1       -0.3794
     37 O          19.7176   71.3824   -7.1610 O.3     1  UNL1       -0.3258
     38 H          17.9810   73.1982   -4.2383 H       1  UNL1        0.2106
     39 H          15.3843   72.9250   -6.3867 H       1  UNL1        0.2105
     40 H          17.1160   73.0684   -9.1642 H       1  UNL1        0.2105
     41 C          19.4967   70.1579   -9.2299 C.3     1  UNL1        0.1693
     42 O          18.5500   70.1943  -10.2992 O.3     1  UNL1       -0.3794
     43 H          19.0191   69.9166  -11.0980 H       1  UNL1        0.2105
@<TRIPOS>BOND
     1    15    16   ar
     2    15    20   ar
     3    15     6    1
     4    16    17   ar
     5    16    21    2
     6    17    18   ar
     7    17    23    1
     8    18    19   ar
     9    18    22    2
    10    19    20   ar
    11     6     7    1
    12     6    11    1
    13     7     8    1
    14     7     9    1
    15     8    13    1
    16     9    10    1
    17     9    12    1
    18    10    11    1
    19    10     5    1
    20    12    14    1
    21     5     4    1
    22     4     1    1
    23     1     2    2
    24     1     3    1
    25     1    24    1
    26    24    25    1
    27    25    26    2
    28    25    27    1
    29    25    28    1
    30    28    29    1
    31    29    30    1
    32    29    37    1
    33    30    31    1
    34    30    34    1
    35    31    32    1
    36    31    35    1
    37    32    33    1
    38    32    36    1
    39    33    41    1
    40    33    37    1
    41    41    42    1
    42    34    38    1
    43    35    39    1
    44    36    40    1
    45    42    43    1
@<TRIPOS>MOLECULE
GDU
 43 45 0 0 0
SMALL
GASTEIGER

@<TRIPOS>ATOM
      1 P          22.2713   72.6894   -4.5755 P.3     1  UNL1        0.2189
      2 O          23.5236   72.4453   -3.8261 O.2     1  UNL1       -0.5170
      3 O          21.6754   74.1294   -4.1702 O.3     1  UNL1       -0.4371
      4 O          22.5759   72.6598   -6.1545 O.3     1  UNL1       -0.3112
      5 C          21.4824   73.3147   -6.7993 C.3     1  UNL1        0.1811
      6 C          18.2867   72.2829   -8.0838 C.3     1  UNL1        0.2383
      7 C          19.2442   72.1856   -9.2989 C.3     1  UNL1        0.1895
      8 O          18.8321   71.1477  -10.1911 O.3     1  UNL1       -0.3779
      9 C          20.5933   71.8295   -8.6217 C.3     1  UNL1        0.1713
     10 C          20.4109   72.2848   -7.1619 C.3     1  UNL1        0.1764
     11 O          19.1059   72.8797   -7.0561 O.3     1  UNL1       -0.3308
     12 O          20.8293   70.4217   -8.6879 O.3     1  UNL1       -0.3794
     13 H          19.4660   71.1400  -10.9218 H       1  UNL1        0.2106
     14 H          20.8748   70.1892   -9.6252 H       1  UNL1        0.2105
     15 N          17.1418   73.1408   -8.3939 N.ar    1  UNL1       -0.2551
     16 C          16.0085   73.0245   -7.6795 C.ar    1  UNL1        0.3323
     17 N          14.9427   73.8036   -7.9419 N.ar    1  UNL1       -0.2743
     18 C          14.9917   74.7105   -8.9366 C.ar    1  UNL1        0.2626
     19 C          16.1769   74.8400   -9.7012 C.ar    1  UNL1        0.0795
     20 C          17.2326   74.0490   -9.4141 C.ar    1  UNL1        0.0869
     21 O          15.9495   72.2113   -6.7788 O.2     1  UNL1       -0.2464
     22 O          14.0258   75.4128   -9.1780 O.2     1  UNL1       -0.2670
     23 H          14.1343   73.7091   -7.4134 H       1  UNL1        0.1734
     24 O          21.1984   71.5448   -4.2131 O.3     1  UNL1       -0.2703
     25 P          21.8067   70.7087   -2.9799 P.3     1  UNL1        0.2208
     26 O          21.2142   69.3530   -2.9635 O.2     1  UNL1       -0.5170
     27 O          23.4046   70.5935   -3.1462 O.3     1  UNL1       -0.4371
     28 O          21.4650   71.4615   -1.5992 O.3     1  UNL1       -0.2858
     29 C          22.6489   71.4225   -0.8013 C.3     1  UNL1        0.2704
     30 C          22.2821   71.0501    0.6361 C.3     1  UNL1        0.1967
     31 C          21.2950   72.0859    1.1832 C.3     1  UNL1        0.1715
     32 C          21.9016   73.4824    1.0057 C.3     1  UNL1        0.1694
     33 C          22.2957   73.6711   -0.4613 C.3     1  UNL1        0.1761
     34 O          21.6791   69.7550    0.6560 O.3     1  UNL1       -0.3775
     35 O          21.0564   71.8361    2.5699 O.3     1  UNL1       -0.3794
     36 O          23.0567   73.6106    1.8361 O.3     1  UNL1       -0.3794
     37 O          23.2778   72.7018   -0.8244 O.3     1  UNL1       -0.3258
     38 H          22.3315   69.1380    0.2974 H       1  UNL1        0.2106
     39 H          20.6877   70.9460    2.6346 H       1  UNL1        0.2105
     40 H          22.7626   73.4790    2.7468 H       1  UNL1        0.2105
     41 C          22.8713   75.0757   -0.6563 C.3     1  UNL1        0.1693
     42 O          23.5327   75.1471   -1.9206 O.3     1  UNL1       -0.3794
     43 H          23.8796   76.0460   -2.0045 H       1  UNL1        0.2105
@<TRIPOS>BOND
     1    15    16   ar
     2    15    20   ar
     3    15     6    1
     4    16    17   ar
     5    16    21    2
     6    17    18   ar
     7    17    23    1
     8    18    19   ar
     9    18    22    2
    10    19    20   ar
    11     6     7    1
    12     6    11    1
    13     7     8    1
    14     7     9    1
    15     8    13    1
    16     9    10    1
    17     9    12    1
    18    10    11    1
    19    10     5    1
    20    12    14    1
    21     5     4    1
    22     4     1    1
    23     1     2    2
    24     1     3    1
    25     1    24    1
    26    24    25    1
    27    25    26    2
    28    25    27    1
    29    25    28    1
    30    28    29    1
    31    29    30    1
    32    29    37    1
    33    30    31    1
    34    30    34    1
    35    31    32    1
    36    31    35    1
    37    32    33    1
    38    32    36    1
    39    33    41    1
    40    33    37    1
    41    41    42    1
    42    34    38    1
    43    35    39    1
    44    36    40    1
    45    42    43    1
