@<TRIPOS>MOLECULE
GDU
 43 45 0 0 0
SMALL
GASTEIGER

@<TRIPOS>ATOM
      1 P          20.9552   71.5470   -2.2331 P.3     1  UNL1        0.2189
      2 O          21.9513   70.6302   -2.8305 O.2     1  UNL1       -0.5170
      3 O          21.6076   73.0090   -2.0598 O.3     1  UNL1       -0.4371
      4 O          19.6696   71.6436   -3.1946 O.3     1  UNL1       -0.3112
      5 C          18.5786   71.0519   -2.4874 C.3     1  UNL1        0.1811
      6 C          16.9437   70.6220   -5.6607 C.3     1  UNL1        0.2383
      7 C          16.9834   69.1988   -5.0475 C.3     1  UNL1        0.1895
      8 O          15.8602   68.4266   -5.4779 O.3     1  UNL1       -0.3779
      9 C          16.8997   69.4974   -3.5279 C.3     1  UNL1        0.1713
     10 C          17.3604   70.9620   -3.4083 C.3     1  UNL1        0.1764
     11 O          17.7116   71.4121   -4.7283 O.3     1  UNL1       -0.3308
     12 O          15.5567   69.3488   -3.0628 O.3     1  UNL1       -0.3794
     13 H          15.9446   67.5566   -5.0634 H       1  UNL1        0.2106
     14 H          15.3067   68.4279   -3.2184 H       1  UNL1        0.2105
     15 N          17.5693   70.6334   -6.9841 N.ar    1  UNL1       -0.2551
     16 C          16.8080   70.4883   -8.0829 C.ar    1  UNL1        0.3323
     17 N          17.3578   70.4987   -9.3115 N.ar    1  UNL1       -0.2743
     18 C          18.6885   70.6457   -9.4597 C.ar    1  UNL1        0.2626
     19 C          19.5036   70.7938   -8.3109 C.ar    1  UNL1        0.0795
     20 C          18.9258   70.7840   -7.0908 C.ar    1  UNL1        0.0869
     21 O          15.6061   70.3552   -7.9651 O.2     1  UNL1       -0.2464
     22 O          19.1877   70.6505  -10.5712 O.2     1  UNL1       -0.2670
     23 H          16.7927   70.3970  -10.0938 H       1  UNL1        0.1734
     24 O          20.5080   70.9862   -0.7916 O.3     1  UNL1       -0.2703
     25 P          21.7970   71.0827    0.1671 P.3     1  UNL1        0.2208
     26 O          21.7951   69.9441    1.1119 O.2     1  UNL1       -0.5170
     27 O          23.1355   71.0347   -0.7274 O.3     1  UNL1       -0.4371
     28 O          21.7526   72.4647    0.9905 O.3     1  UNL1       -0.2858
     29 C          22.3238   72.2022    2.2729 C.3     1  UNL1        0.2704
     30 C          21.5227   72.9387    3.3476 C.3     1  UNL1        0.1967
     31 C          21.5429   74.4399    3.0435 C.3     1  UNL1        0.1715
     32 C          23.0006   74.8898    2.8935 C.3     1  UNL1        0.1694
     33 C          23.6896   74.0059    1.8509 C.3     1  UNL1        0.1761
     34 O          20.1741   72.4669    3.3468 O.3     1  UNL1       -0.3775
     35 O          20.9250   75.1553    4.1154 O.3     1  UNL1       -0.3794
     36 O          23.6703   74.7668    4.1490 O.3     1  UNL1       -0.3794
     37 O          23.6780   72.6477    2.2882 O.3     1  UNL1       -0.3258
     38 H          20.2101   71.5191    3.5348 H       1  UNL1        0.2106
     39 H          20.0173   74.8326    4.1806 H       1  UNL1        0.2105
     40 H          23.2001   75.3341    4.7738 H       1  UNL1        0.2105
     41 C          25.1367   74.4689    1.6684 C.3     1  UNL1        0.1693
     42 O          25.9295   73.9919    2.7569 O.3     1  UNL1       -0.3794
     43 H          26.8319   74.3040    2.6038 H       1  UNL1        0.2105
@<TRIPOS>BOND
     1    15    16   ar
     2    15    20   ar
     3    15     6    1
     4    16    17   ar
     5    16    21    2
     6    17    18   ar
     7    17    23    1
     8    18    19   ar
     9    18    22    2
    10    19    20   ar
    11     6     7    1
    12     6    11    1
    13     7     8    1
    14     7     9    1
    15     8    13    1
    16     9    10    1
    17     9    12    1
    18    10    11    1
    19    10     5    1
    20    12    14    1
    21     5     4    1
    22     4     1    1
    23     1     2    2
    24     1     3    1
    25     1    24    1
    26    24    25    1
    27    25    26    2
    28    25    27    1
    29    25    28    1
    30    28    29    1
    31    29    30    1
    32    29    37    1
    33    30    31    1
    34    30    34    1
    35    31    32    1
    36    31    35    1
    37    32    33    1
    38    32    36    1
    39    33    41    1
    40    33    37    1
    41    41    42    1
    42    34    38    1
    43    35    39    1
    44    36    40    1
    45    42    43    1
@<TRIPOS>MOLECULE
GDU
 43 45 0 0 0
SMALL
GASTEIGER

@<TRIPOS>ATOM
      1 P          20.9525   70.7536   -3.5842 P.3     1  UNL1        0.2189
      2 O          20.3824   69.4657   -4.0380 O.2     1  UNL1       -0.5170
      3 O          21.8097   71.4114   -4.7781 O.3     1  UNL1       -0.4371
      4 O          19.7615   71.7505   -3.1663 O.3     1  UNL1       -0.3112
      5 C          18.7325   70.9463   -2.5877 C.3     1  UNL1        0.1811
      6 C          17.1221   70.5878   -5.7823 C.3     1  UNL1        0.2383
      7 C          17.0906   69.1646   -5.1689 C.3     1  UNL1        0.1895
      8 O          15.9401   68.4427   -5.6142 O.3     1  UNL1       -0.3779
      9 C          17.0002   69.4672   -3.6505 C.3     1  UNL1        0.1713
     10 C          17.5237   70.9100   -3.5246 C.3     1  UNL1        0.1764
     11 O          17.9119   71.3436   -4.8397 O.3     1  UNL1       -0.3308
     12 O          15.6460   69.3785   -3.2031 O.3     1  UNL1       -0.3794
     13 H          15.9804   67.5700   -5.1987 H       1  UNL1        0.2106
     14 H          15.3575   68.4695   -3.3622 H       1  UNL1        0.2105
     15 N          17.7650   70.5709   -7.0973 N.ar    1  UNL1       -0.2551
     16 C          17.0094   70.5166   -8.2084 C.ar    1  UNL1        0.3323
     17 N          17.5754   70.5035   -9.4296 N.ar    1  UNL1       -0.2743
     18 C          18.9158   70.5349   -9.5582 C.ar    1  UNL1        0.2626
     19 C          19.7245   70.5865   -8.3965 C.ar    1  UNL1        0.0795
     20 C          19.1309   70.6028   -7.1841 C.ar    1  UNL1        0.0869
     21 O          15.7989   70.4882   -8.1082 O.2     1  UNL1       -0.2464
     22 O          19.4292   70.5183  -10.6630 O.2     1  UNL1       -0.2670
     23 H          17.0146   70.4684  -10.2208 H       1  UNL1        0.1734
     24 O          21.9103   70.4980   -2.3154 O.3     1  UNL1       -0.2703
     25 P          23.0932   71.5861   -2.3971 P.3     1  UNL1        0.2208
     26 O          24.2827   70.9747   -3.0297 O.2     1  UNL1       -0.5170
     27 O          22.6052   72.8441   -3.2766 O.3     1  UNL1       -0.4371
     28 O          23.4694   72.0839   -0.9135 O.3     1  UNL1       -0.2858
     29 C          22.7465   71.2553   -0.0021 C.3     1  UNL1        0.2704
     30 C          21.7274   72.1043    0.7594 C.3     1  UNL1        0.1967
     31 C          22.4664   73.2169    1.5094 C.3     1  UNL1        0.1715
     32 C          23.5617   72.5816    2.3734 C.3     1  UNL1        0.1694
     33 C          24.4435   71.6973    1.4883 C.3     1  UNL1        0.1761
     34 O          20.8004   72.6805   -0.1624 O.3     1  UNL1       -0.3775
     35 O          21.5472   73.9277    2.3413 O.3     1  UNL1       -0.3794
     36 O          22.9617   71.7908    3.4003 O.3     1  UNL1       -0.3794
     37 O          23.6572   70.6537    0.9151 O.3     1  UNL1       -0.3258
     38 H          20.3647   71.9460   -0.6158 H       1  UNL1        0.2106
     39 H          20.8721   74.2988    1.7592 H       1  UNL1        0.2105
     40 H          22.4130   72.3862    3.9274 H       1  UNL1        0.2105
     41 C          25.5616   71.0849    2.3351 C.3     1  UNL1        0.1693
     42 O          25.1240   69.8332    2.8669 O.3     1  UNL1       -0.3794
     43 H          25.8558   69.4810    3.3920 H       1  UNL1        0.2105
@<TRIPOS>BOND
     1    15    16   ar
     2    15    20   ar
     3    15     6    1
     4    16    17   ar
     5    16    21    2
     6    17    18   ar
     7    17    23    1
     8    18    19   ar
     9    18    22    2
    10    19    20   ar
    11     6     7    1
    12     6    11    1
    13     7     8    1
    14     7     9    1
    15     8    13    1
    16     9    10    1
    17     9    12    1
    18    10    11    1
    19    10     5    1
    20    12    14    1
    21     5     4    1
    22     4     1    1
    23     1     2    2
    24     1     3    1
    25     1    24    1
    26    24    25    1
    27    25    26    2
    28    25    27    1
    29    25    28    1
    30    28    29    1
    31    29    30    1
    32    29    37    1
    33    30    31    1
    34    30    34    1
    35    31    32    1
    36    31    35    1
    37    32    33    1
    38    32    36    1
    39    33    41    1
    40    33    37    1
    41    41    42    1
    42    34    38    1
    43    35    39    1
    44    36    40    1
    45    42    43    1
@<TRIPOS>MOLECULE
GDU
 43 45 0 0 0
SMALL
GASTEIGER

@<TRIPOS>ATOM
      1 P          20.1870   72.0362   -1.0700 P.3     1  UNL1        0.2189
      2 O          21.3871   72.0234   -1.9355 O.2     1  UNL1       -0.5170
      3 O          19.2515   73.2848   -1.4683 O.3     1  UNL1       -0.4371
      4 O          19.3673   70.6667   -1.2682 O.3     1  UNL1       -0.3112
      5 C          19.5357   70.2774   -2.6322 C.3     1  UNL1        0.1811
      6 C          17.4979   70.4281   -5.5905 C.3     1  UNL1        0.2383
      7 C          17.3041   68.9854   -5.0577 C.3     1  UNL1        0.1895
      8 O          16.0013   68.4935   -5.3800 O.3     1  UNL1       -0.3779
      9 C          17.4584   69.1810   -3.5269 C.3     1  UNL1        0.1713
     10 C          18.2298   70.5073   -3.3950 C.3     1  UNL1        0.1764
     11 O          18.5166   70.9729   -4.7251 O.3     1  UNL1       -0.3308
     12 O          16.1761   69.2761   -2.9036 O.3     1  UNL1       -0.3794
     13 H          15.9457   67.5963   -5.0225 H       1  UNL1        0.2106
     14 H          15.7205   68.4401   -3.0713 H       1  UNL1        0.2105
     15 N          17.9576   70.4096   -6.9802 N.ar    1  UNL1       -0.2551
     16 C          17.0585   70.4101   -7.9801 C.ar    1  UNL1        0.3323
     17 N          17.4547   70.3968   -9.2664 N.ar    1  UNL1       -0.2743
     18 C          18.7659   70.3728   -9.5738 C.ar    1  UNL1        0.2626
     19 C          19.7243   70.3663   -8.5309 C.ar    1  UNL1        0.0795
     20 C          19.2996   70.3842   -7.2496 C.ar    1  UNL1        0.0869
     21 O          15.8723   70.4321   -7.7184 O.2     1  UNL1       -0.2464
     22 O          19.1255   70.3560  -10.7378 O.2     1  UNL1       -0.2670
     23 H          16.7921   70.4017   -9.9754 H       1  UNL1        0.1734
     24 O          20.6383   72.1752    0.4694 O.3     1  UNL1       -0.2703
     25 P          21.9413   71.2499    0.6590 P.3     1  UNL1        0.2208
     26 O          21.5234   69.8797    1.0292 O.2     1  UNL1       -0.5170
     27 O          22.7712   71.2029   -0.7206 O.3     1  UNL1       -0.4371
     28 O          22.8704   71.8614    1.8221 O.3     1  UNL1       -0.2858
     29 C          22.5663   73.2542    1.9070 C.3     1  UNL1        0.2704
     30 C          23.8168   74.0696    1.5742 C.3     1  UNL1        0.1967
     31 C          24.9305   73.6983    2.5582 C.3     1  UNL1        0.1715
     32 C          24.4004   73.8705    3.9861 C.3     1  UNL1        0.1694
     33 C          23.1057   73.0679    4.1365 C.3     1  UNL1        0.1761
     34 O          24.2375   73.7779    0.2404 O.3     1  UNL1       -0.3775
     35 O          26.0562   74.5551    2.3548 O.3     1  UNL1       -0.3794
     36 O          24.1432   75.2528    4.2369 O.3     1  UNL1       -0.3794
     37 O          22.1241   73.5628    3.2268 O.3     1  UNL1       -0.3258
     38 H          23.5050   74.0199   -0.3424 H       1  UNL1        0.2106
     39 H          26.3476   74.4228    1.4438 H       1  UNL1        0.2105
     40 H          24.9824   75.7184    4.1255 H       1  UNL1        0.2105
     41 C          22.5860   73.2053    5.5693 C.3     1  UNL1        0.1693
     42 O          21.2435   73.6932    5.5435 O.3     1  UNL1       -0.3794
     43 H          20.9539   73.7646    6.4634 H       1  UNL1        0.2105
@<TRIPOS>BOND
     1    15    16   ar
     2    15    20   ar
     3    15     6    1
     4    16    17   ar
     5    16    21    2
     6    17    18   ar
     7    17    23    1
     8    18    19   ar
     9    18    22    2
    10    19    20   ar
    11     6     7    1
    12     6    11    1
    13     7     8    1
    14     7     9    1
    15     8    13    1
    16     9    10    1
    17     9    12    1
    18    10    11    1
    19    10     5    1
    20    12    14    1
    21     5     4    1
    22     4     1    1
    23     1     2    2
    24     1     3    1
    25     1    24    1
    26    24    25    1
    27    25    26    2
    28    25    27    1
    29    25    28    1
    30    28    29    1
    31    29    30    1
    32    29    37    1
    33    30    31    1
    34    30    34    1
    35    31    32    1
    36    31    35    1
    37    32    33    1
    38    32    36    1
    39    33    41    1
    40    33    37    1
    41    41    42    1
    42    34    38    1
    43    35    39    1
    44    36    40    1
    45    42    43    1
@<TRIPOS>MOLECULE
GDU
 43 45 0 0 0
SMALL
GASTEIGER

@<TRIPOS>ATOM
      1 P          20.7358   71.5126   -1.4277 P.3     1  UNL1        0.2189
      2 O          21.0319   72.9390   -1.1687 O.2     1  UNL1       -0.5170
      3 O          21.2067   70.6292   -0.1664 O.3     1  UNL1       -0.4371
      4 O          19.1545   71.3248   -1.6539 O.3     1  UNL1       -0.3112
      5 C          18.9925   70.2225   -2.5479 C.3     1  UNL1        0.1811
      6 C          17.1983   70.4125   -5.6579 C.3     1  UNL1        0.2383
      7 C          17.0065   68.9482   -5.1869 C.3     1  UNL1        0.1895
      8 O          15.7501   68.4304   -5.6301 O.3     1  UNL1       -0.3779
      9 C          17.0297   69.0977   -3.6434 C.3     1  UNL1        0.1713
     10 C          17.7464   70.4403   -3.4082 C.3     1  UNL1        0.1764
     11 O          18.1259   70.9572   -4.6954 O.3     1  UNL1       -0.3308
     12 O          15.6986   69.1359   -3.1251 O.3     1  UNL1       -0.3794
     13 H          15.6933   67.5207   -5.3059 H       1  UNL1        0.2106
     14 H          15.2842   68.2933   -3.3551 H       1  UNL1        0.2105
     15 N          17.7699   70.4527   -7.0050 N.ar    1  UNL1       -0.2551
     16 C          16.9561   70.4378   -8.0754 C.ar    1  UNL1        0.3323
     17 N          17.4559   70.4775   -9.3246 N.ar    1  UNL1       -0.2743
     18 C          18.7873   70.5230   -9.5232 C.ar    1  UNL1        0.2626
     19 C          19.6568   70.5334   -8.4052 C.ar    1  UNL1        0.0795
     20 C          19.1290   70.4972   -7.1632 C.ar    1  UNL1        0.0869
     21 O          15.7529   70.3974   -7.9120 O.2     1  UNL1       -0.2464
     22 O          19.2407   70.5541  -10.6536 O.2     1  UNL1       -0.2670
     23 H          16.8536   70.4704  -10.0855 H       1  UNL1        0.1734
     24 O          21.5284   71.0313   -2.7440 O.3     1  UNL1       -0.2703
     25 P          22.8423   71.9533   -2.8607 P.3     1  UNL1        0.2208
     26 O          23.1134   72.5930   -1.5544 O.2     1  UNL1       -0.5170
     27 O          24.1014   71.0419   -3.2829 O.3     1  UNL1       -0.4371
     28 O          22.6052   73.0887   -3.9764 O.3     1  UNL1       -0.2858
     29 C          21.5612   72.6194   -4.8306 C.3     1  UNL1        0.2704
     30 C          21.9589   72.8424   -6.2905 C.3     1  UNL1        0.1967
     31 C          22.2116   74.3364   -6.5158 C.3     1  UNL1        0.1715
     32 C          20.9783   75.1178   -6.0490 C.3     1  UNL1        0.1694
     33 C          20.6560   74.7233   -4.6056 C.3     1  UNL1        0.1761
     34 O          23.1479   72.1053   -6.5806 O.3     1  UNL1       -0.3775
     35 O          22.4402   74.5805   -7.9053 O.3     1  UNL1       -0.3794
     36 O          19.8687   74.8081   -6.8933 O.3     1  UNL1       -0.3794
     37 O          20.3587   73.3292   -4.5426 O.3     1  UNL1       -0.3258
     38 H          22.9452   71.1739   -6.4187 H       1  UNL1        0.2106
     39 H          23.2146   74.0617   -8.1569 H       1  UNL1        0.2105
     40 H          20.1182   75.0672   -7.7899 H       1  UNL1        0.2105
     41 C          19.4461   75.5236   -4.1180 C.3     1  UNL1        0.1693
     42 O          19.4483   76.8121   -4.7350 O.3     1  UNL1       -0.3794
     43 H          18.6717   77.2830   -4.4026 H       1  UNL1        0.2105
@<TRIPOS>BOND
     1    15    16   ar
     2    15    20   ar
     3    15     6    1
     4    16    17   ar
     5    16    21    2
     6    17    18   ar
     7    17    23    1
     8    18    19   ar
     9    18    22    2
    10    19    20   ar
    11     6     7    1
    12     6    11    1
    13     7     8    1
    14     7     9    1
    15     8    13    1
    16     9    10    1
    17     9    12    1
    18    10    11    1
    19    10     5    1
    20    12    14    1
    21     5     4    1
    22     4     1    1
    23     1     2    2
    24     1     3    1
    25     1    24    1
    26    24    25    1
    27    25    26    2
    28    25    27    1
    29    25    28    1
    30    28    29    1
    31    29    30    1
    32    29    37    1
    33    30    31    1
    34    30    34    1
    35    31    32    1
    36    31    35    1
    37    32    33    1
    38    32    36    1
    39    33    41    1
    40    33    37    1
    41    41    42    1
    42    34    38    1
    43    35    39    1
    44    36    40    1
    45    42    43    1
@<TRIPOS>MOLECULE
GDU
 43 45 0 0 0
SMALL
GASTEIGER

@<TRIPOS>ATOM
      1 P          20.7730   71.3673   -1.0226 P.3     1  UNL1        0.2189
      2 O          21.1820   72.7812   -0.8711 O.2     1  UNL1       -0.5170
      3 O          20.9006   70.6168    0.3964 O.3     1  UNL1       -0.4371
      4 O          19.2481   71.3007   -1.5297 O.3     1  UNL1       -0.3112
      5 C          19.2060   70.3442   -2.5898 C.3     1  UNL1        0.1811
      6 C          17.3105   70.4634   -5.6427 C.3     1  UNL1        0.2383
      7 C          17.1217   69.0150   -5.1238 C.3     1  UNL1        0.1895
      8 O          15.8466   68.4971   -5.5100 O.3     1  UNL1       -0.3779
      9 C          17.1979   69.2080   -3.5869 C.3     1  UNL1        0.1713
     10 C          17.9338   70.5496   -3.4142 C.3     1  UNL1        0.1764
     11 O          18.2746   71.0261   -4.7276 O.3     1  UNL1       -0.3308
     12 O          15.8852   69.2739   -3.0260 O.3     1  UNL1       -0.3794
     13 H          15.7927   67.5976   -5.1581 H       1  UNL1        0.2106
     14 H          15.4559   68.4291   -3.2178 H       1  UNL1        0.2105
     15 N          17.8370   70.4598   -7.0086 N.ar    1  UNL1       -0.2551
     16 C          16.9876   70.4316   -8.0507 C.ar    1  UNL1        0.3323
     17 N          17.4456   70.4312   -9.3164 N.ar    1  UNL1       -0.2743
     18 C          18.7701   70.4491   -9.5602 C.ar    1  UNL1        0.2626
     19 C          19.6769   70.4730   -8.4723 C.ar    1  UNL1        0.0795
     20 C          19.1906   70.4772   -7.2130 C.ar    1  UNL1        0.0869
     21 O          15.7900   70.4158   -7.8464 O.2     1  UNL1       -0.2464
     22 O          19.1857   70.4439  -10.7055 O.2     1  UNL1       -0.2670
     23 H          16.8181   70.4151  -10.0565 H       1  UNL1        0.1734
     24 O          21.7295   70.6452   -2.0979 O.3     1  UNL1       -0.2703
     25 P          23.0904   71.5019   -2.1613 P.3     1  UNL1        0.2208
     26 O          23.5711   71.7661   -0.7871 O.2     1  UNL1       -0.5170
     27 O          24.2091   70.6725   -2.9704 O.3     1  UNL1       -0.4371
     28 O          22.8124   72.8983   -2.9114 O.3     1  UNL1       -0.2858
     29 C          23.9648   73.1785   -3.7071 C.3     1  UNL1        0.2704
     30 C          24.3196   74.6613   -3.5850 C.3     1  UNL1        0.1967
     31 C          23.1248   75.4998   -4.0493 C.3     1  UNL1        0.1715
     32 C          22.7197   75.0396   -5.4543 C.3     1  UNL1        0.1694
     33 C          22.4841   73.5273   -5.4341 C.3     1  UNL1        0.1761
     34 O          24.6228   74.9702   -2.2234 O.3     1  UNL1       -0.3775
     35 O          23.4907   76.8809   -4.0808 O.3     1  UNL1       -0.3794
     36 O          23.7620   75.3534   -6.3789 O.3     1  UNL1       -0.3794
     37 O          23.6896   72.8572   -5.0686 O.3     1  UNL1       -0.3258
     38 H          25.3740   74.4158   -1.9721 H       1  UNL1        0.2106
     39 H          23.7485   77.1226   -3.1822 H       1  UNL1        0.2105
     40 H          23.8792   76.3120   -6.3538 H       1  UNL1        0.2105
     41 C          22.0456   73.0626   -6.8247 C.3     1  UNL1        0.1693
     42 O          23.1768   73.0397   -7.6970 O.3     1  UNL1       -0.3794
     43 H          22.8586   72.7417   -8.5602 H       1  UNL1        0.2105
@<TRIPOS>BOND
     1    15    16   ar
     2    15    20   ar
     3    15     6    1
     4    16    17   ar
     5    16    21    2
     6    17    18   ar
     7    17    23    1
     8    18    19   ar
     9    18    22    2
    10    19    20   ar
    11     6     7    1
    12     6    11    1
    13     7     8    1
    14     7     9    1
    15     8    13    1
    16     9    10    1
    17     9    12    1
    18    10    11    1
    19    10     5    1
    20    12    14    1
    21     5     4    1
    22     4     1    1
    23     1     2    2
    24     1     3    1
    25     1    24    1
    26    24    25    1
    27    25    26    2
    28    25    27    1
    29    25    28    1
    30    28    29    1
    31    29    30    1
    32    29    37    1
    33    30    31    1
    34    30    34    1
    35    31    32    1
    36    31    35    1
    37    32    33    1
    38    32    36    1
    39    33    41    1
    40    33    37    1
    41    41    42    1
    42    34    38    1
    43    35    39    1
    44    36    40    1
    45    42    43    1
@<TRIPOS>MOLECULE
GDU
 43 45 0 0 0
SMALL
GASTEIGER

@<TRIPOS>ATOM
      1 P          16.2411   69.5867   -2.7487 P.3     1  UNL1        0.2189
      2 O          17.0425   68.5627   -2.0424 O.2     1  UNL1       -0.5170
      3 O          16.0279   69.1386   -4.2806 O.3     1  UNL1       -0.4371
      4 O          14.8103   69.7388   -2.0300 O.3     1  UNL1       -0.3112
      5 C          14.9266   69.1289   -0.7435 C.3     1  UNL1        0.1811
      6 C          12.5927   67.7528    1.6200 C.3     1  UNL1        0.2383
      7 C          12.3573   69.2835    1.6869 C.3     1  UNL1        0.1895
      8 O          10.9956   69.5765    2.0082 O.3     1  UNL1       -0.3779
      9 C          12.6918   69.7272    0.2390 C.3     1  UNL1        0.1713
     10 C          13.5644   68.5836   -0.3107 C.3     1  UNL1        0.1764
     11 O          13.7358   67.6255    0.7480 O.3     1  UNL1       -0.3308
     12 O          11.4954   69.8665   -0.5298 O.3     1  UNL1       -0.3794
     13 H          10.9165   70.5403    2.0344 H       1  UNL1        0.2106
     14 H          10.9664   70.5538   -0.1027 H       1  UNL1        0.2105
     15 N          12.8949   67.2167    2.9482 N.ar    1  UNL1       -0.2551
     16 C          12.8317   65.8907    3.1623 C.ar    1  UNL1        0.3323
     17 N          13.1083   65.3717    4.3732 N.ar    1  UNL1       -0.2743
     18 C          13.4450   66.1785    5.3979 C.ar    1  UNL1        0.2626
     19 C          13.5099   67.5778    5.1886 C.ar    1  UNL1        0.0795
     20 C          13.2318   68.0714    3.9632 C.ar    1  UNL1        0.0869
     21 O          12.5299   65.1504    2.2475 O.2     1  UNL1       -0.2464
     22 O          13.6908   65.7101    6.4955 O.2     1  UNL1       -0.2670
     23 H          13.0619   64.4119    4.5087 H       1  UNL1        0.1734
     24 O          17.0169   70.9970   -2.7066 O.3     1  UNL1       -0.2703
     25 P          18.2960   70.8549   -3.6728 P.3     1  UNL1        0.2208
     26 O          19.0396   72.1338   -3.6977 O.2     1  UNL1       -0.5170
     27 O          19.2576   69.6863   -3.1216 O.3     1  UNL1       -0.4371
     28 O          17.8072   70.4883   -5.1617 O.3     1  UNL1       -0.2858
     29 C          17.8490   71.6968   -5.9216 C.3     1  UNL1        0.2704
     30 C          16.6138   71.7762   -6.8201 C.3     1  UNL1        0.1967
     31 C          16.5912   70.5559   -7.7456 C.3     1  UNL1        0.1715
     32 C          17.9315   70.4767   -8.4850 C.3     1  UNL1        0.1694
     33 C          19.0676   70.4938   -7.4593 C.3     1  UNL1        0.1761
     34 O          15.4349   71.7886   -6.0130 O.3     1  UNL1       -0.3775
     35 O          15.5265   70.6889   -8.6897 O.3     1  UNL1       -0.3794
     36 O          18.0587   71.5947   -9.3647 O.3     1  UNL1       -0.3794
     37 O          19.0301   71.7136   -6.7198 O.3     1  UNL1       -0.3258
     38 H          15.4952   72.5673   -5.4430 H       1  UNL1        0.2106
     39 H          14.7075   70.7470   -8.1815 H       1  UNL1        0.2105
     40 H          17.3216   71.5462   -9.9873 H       1  UNL1        0.2105
     41 C          20.4099   70.3806   -8.1855 C.3     1  UNL1        0.1693
     42 O          21.4739   70.5368   -7.2451 O.3     1  UNL1       -0.3794
     43 H          22.3001   70.4583   -7.7416 H       1  UNL1        0.2105
@<TRIPOS>BOND
     1    15    16   ar
     2    15    20   ar
     3    15     6    1
     4    16    17   ar
     5    16    21    2
     6    17    18   ar
     7    17    23    1
     8    18    19   ar
     9    18    22    2
    10    19    20   ar
    11     6     7    1
    12     6    11    1
    13     7     8    1
    14     7     9    1
    15     8    13    1
    16     9    10    1
    17     9    12    1
    18    10    11    1
    19    10     5    1
    20    12    14    1
    21     5     4    1
    22     4     1    1
    23     1     2    2
    24     1     3    1
    25     1    24    1
    26    24    25    1
    27    25    26    2
    28    25    27    1
    29    25    28    1
    30    28    29    1
    31    29    30    1
    32    29    37    1
    33    30    31    1
    34    30    34    1
    35    31    32    1
    36    31    35    1
    37    32    33    1
    38    32    36    1
    39    33    41    1
    40    33    37    1
    41    41    42    1
    42    34    38    1
    43    35    39    1
    44    36    40    1
    45    42    43    1
@<TRIPOS>MOLECULE
GDU
 43 45 0 0 0
SMALL
GASTEIGER

@<TRIPOS>ATOM
      1 P          20.3873   71.9747   -2.3141 P.3     1  UNL1        0.2189
      2 O          20.3672   73.1622   -1.4315 O.2     1  UNL1       -0.5170
      3 O          20.2981   70.6392   -1.4189 O.3     1  UNL1       -0.4371
      4 O          19.1332   72.0316   -3.3195 O.3     1  UNL1       -0.3112
      5 C          17.9958   71.5700   -2.5889 C.3     1  UNL1        0.1811
      6 C          16.7628   70.4973   -5.7914 C.3     1  UNL1        0.2383
      7 C          17.0710   69.1813   -5.0325 C.3     1  UNL1        0.1895
      8 O          16.1887   68.1355   -5.4460 O.3     1  UNL1       -0.3779
      9 C          16.7991   69.5843   -3.5597 C.3     1  UNL1        0.1713
     10 C          16.9080   71.1204   -3.5659 C.3     1  UNL1        0.1764
     11 O          17.2553   71.5222   -4.9023 O.3     1  UNL1       -0.3308
     12 O          15.4906   69.1704   -3.1619 O.3     1  UNL1       -0.3794
     13 H          16.4323   67.3484   -4.9391 H       1  UNL1        0.2106
     14 H          15.4672   68.2066   -3.2356 H       1  UNL1        0.2105
     15 N          17.4754   70.5372   -7.0695 N.ar    1  UNL1       -0.2551
     16 C          16.7803   70.5500   -8.2205 C.ar    1  UNL1        0.3323
     17 N          17.4111   70.5901   -9.4089 N.ar    1  UNL1       -0.2743
     18 C          18.7567   70.6082   -9.4642 C.ar    1  UNL1        0.2626
     19 C          19.5022   70.5893   -8.2600 C.ar    1  UNL1        0.0795
     20 C          18.8443   70.5534   -7.0817 C.ar    1  UNL1        0.0869
     21 O          15.5659   70.5345   -8.1865 O.2     1  UNL1       -0.2464
     22 O          19.3287   70.6397  -10.5396 O.2     1  UNL1       -0.2670
     23 H          16.8934   70.6032  -10.2296 H       1  UNL1        0.1734
     24 O          21.7561   71.9605   -3.1618 O.3     1  UNL1       -0.2703
     25 P          22.9593   72.1406   -2.1082 P.3     1  UNL1        0.2208
     26 O          23.7887   70.9154   -2.0928 O.2     1  UNL1       -0.5170
     27 O          23.8681   73.3978   -2.5415 O.3     1  UNL1       -0.4371
     28 O          22.3539   72.3985   -0.6395 O.3     1  UNL1       -0.2858
     29 C          23.2410   71.7754    0.2903 C.3     1  UNL1        0.2704
     30 C          22.4430   71.2626    1.4901 C.3     1  UNL1        0.1967
     31 C          21.7140   72.4403    2.1441 C.3     1  UNL1        0.1715
     32 C          22.7385   73.5353    2.4621 C.3     1  UNL1        0.1694
     33 C          23.5133   73.8773    1.1870 C.3     1  UNL1        0.1761
     34 O          21.4905   70.2920    1.0519 O.3     1  UNL1       -0.3775
     35 O          21.0834   72.0046    3.3504 O.3     1  UNL1       -0.3794
     36 O          23.6417   73.0679    3.4649 O.3     1  UNL1       -0.3794
     37 O          24.2134   72.7230    0.7250 O.3     1  UNL1       -0.3258
     38 H          21.9921   69.5745    0.6414 H       1  UNL1        0.2106
     39 H          20.4587   71.3106    3.1047 H       1  UNL1        0.2105
     40 H          23.1108   72.8598    4.2447 H       1  UNL1        0.2105
     41 C          24.5159   74.9943    1.4857 C.3     1  UNL1        0.1693
     42 O          25.7234   74.4256    1.9951 O.3     1  UNL1       -0.3794
     43 H          26.3272   75.1607    2.1693 H       1  UNL1        0.2105
@<TRIPOS>BOND
     1    15    16   ar
     2    15    20   ar
     3    15     6    1
     4    16    17   ar
     5    16    21    2
     6    17    18   ar
     7    17    23    1
     8    18    19   ar
     9    18    22    2
    10    19    20   ar
    11     6     7    1
    12     6    11    1
    13     7     8    1
    14     7     9    1
    15     8    13    1
    16     9    10    1
    17     9    12    1
    18    10    11    1
    19    10     5    1
    20    12    14    1
    21     5     4    1
    22     4     1    1
    23     1     2    2
    24     1     3    1
    25     1    24    1
    26    24    25    1
    27    25    26    2
    28    25    27    1
    29    25    28    1
    30    28    29    1
    31    29    30    1
    32    29    37    1
    33    30    31    1
    34    30    34    1
    35    31    32    1
    36    31    35    1
    37    32    33    1
    38    32    36    1
    39    33    41    1
    40    33    37    1
    41    41    42    1
    42    34    38    1
    43    35    39    1
    44    36    40    1
    45    42    43    1
@<TRIPOS>MOLECULE
GDU
 43 45 0 0 0
SMALL
GASTEIGER

@<TRIPOS>ATOM
      1 P          20.8693   71.4529   -2.0253 P.3     1  UNL1        0.2189
      2 O          20.9762   70.6373   -0.7953 O.2     1  UNL1       -0.5170
      3 O          22.3365   71.6769   -2.6497 O.3     1  UNL1       -0.4371
      4 O          19.9411   70.6915   -3.0956 O.3     1  UNL1       -0.3112
      5 C          18.7583   70.2873   -2.4041 C.3     1  UNL1        0.1811
      6 C          17.0880   70.4381   -5.5844 C.3     1  UNL1        0.2383
      7 C          16.9120   68.9691   -5.1217 C.3     1  UNL1        0.1895
      8 O          15.6872   68.4222   -5.6157 O.3     1  UNL1       -0.3779
      9 C          16.8689   69.1175   -3.5786 C.3     1  UNL1        0.1713
     10 C          17.5434   70.4764   -3.3143 C.3     1  UNL1        0.1764
     11 O          17.9625   71.0036   -4.5850 O.3     1  UNL1       -0.3308
     12 O          15.5173   69.1237   -3.1148 O.3     1  UNL1       -0.3794
     13 H          15.6389   67.5111   -5.2941 H       1  UNL1        0.2106
     14 H          15.1327   68.2717   -3.3614 H       1  UNL1        0.2105
     15 N          17.7127   70.4932   -6.9071 N.ar    1  UNL1       -0.2551
     16 C          16.9429   70.4717   -8.0096 C.ar    1  UNL1        0.3323
     17 N          17.4920   70.5248   -9.2374 N.ar    1  UNL1       -0.2743
     18 C          18.8295   70.5907   -9.3819 C.ar    1  UNL1        0.2626
     19 C          19.6531   70.6083   -8.2297 C.ar    1  UNL1        0.0795
     20 C          19.0762   70.5583   -7.0102 C.ar    1  UNL1        0.0869
     21 O          15.7348   70.4128   -7.8950 O.2     1  UNL1       -0.2464
     22 O          19.3276   70.6340  -10.4930 O.2     1  UNL1       -0.2670
     23 H          16.9210   70.5126  -10.0220 H       1  UNL1        0.1734
     24 O          20.2166   72.8804   -1.6664 O.3     1  UNL1       -0.2703
     25 P          21.3532   73.7377   -0.9158 P.3     1  UNL1        0.2208
     26 O          22.4018   74.1226   -1.8861 O.2     1  UNL1       -0.5170
     27 O          20.6945   75.0646   -0.2837 O.3     1  UNL1       -0.4371
     28 O          22.0065   72.8526    0.2588 O.3     1  UNL1       -0.2858
     29 C          23.3889   73.2052    0.3243 C.3     1  UNL1        0.2704
     30 C          24.2184   71.9580    0.6336 C.3     1  UNL1        0.1967
     31 C          23.7482   71.3640    1.9650 C.3     1  UNL1        0.1715
     32 C          23.7955   72.4607    3.0348 C.3     1  UNL1        0.1694
     33 C          22.9957   73.6700    2.5437 C.3     1  UNL1        0.1761
     34 O          24.0446   70.9968   -0.4090 O.3     1  UNL1       -0.3775
     35 O          24.6084   70.2863    2.3404 O.3     1  UNL1       -0.3794
     36 O          25.1519   72.8419    3.2686 O.3     1  UNL1       -0.3794
     37 O          23.5810   74.1802    1.3466 O.3     1  UNL1       -0.3258
     38 H          24.3458   71.4150   -1.2271 H       1  UNL1        0.2106
     39 H          24.5564   69.6282    1.6358 H       1  UNL1        0.2105
     40 H          25.6171   72.0506    3.5697 H       1  UNL1        0.2105
     41 C          23.0079   74.7583    3.6195 C.3     1  UNL1        0.1693
     42 O          21.9592   75.6936    3.3616 O.3     1  UNL1       -0.3794
     43 H          22.0009   76.3606    4.0605 H       1  UNL1        0.2105
@<TRIPOS>BOND
     1    15    16   ar
     2    15    20   ar
     3    15     6    1
     4    16    17   ar
     5    16    21    2
     6    17    18   ar
     7    17    23    1
     8    18    19   ar
     9    18    22    2
    10    19    20   ar
    11     6     7    1
    12     6    11    1
    13     7     8    1
    14     7     9    1
    15     8    13    1
    16     9    10    1
    17     9    12    1
    18    10    11    1
    19    10     5    1
    20    12    14    1
    21     5     4    1
    22     4     1    1
    23     1     2    2
    24     1     3    1
    25     1    24    1
    26    24    25    1
    27    25    26    2
    28    25    27    1
    29    25    28    1
    30    28    29    1
    31    29    30    1
    32    29    37    1
    33    30    31    1
    34    30    34    1
    35    31    32    1
    36    31    35    1
    37    32    33    1
    38    32    36    1
    39    33    41    1
    40    33    37    1
    41    41    42    1
    42    34    38    1
    43    35    39    1
    44    36    40    1
    45    42    43    1
@<TRIPOS>MOLECULE
GDU
 43 45 0 0 0
SMALL
GASTEIGER

@<TRIPOS>ATOM
      1 P          20.9788   72.3293   -2.3105 P.3     1  UNL1        0.2189
      2 O          20.6511   73.7418   -2.6055 O.2     1  UNL1       -0.5170
      3 O          22.1299   72.2691   -1.1862 O.3     1  UNL1       -0.4371
      4 O          19.6643   71.5738   -1.7737 O.3     1  UNL1       -0.3112
      5 C          19.4617   70.4425   -2.6221 C.3     1  UNL1        0.1811
      6 C          17.4690   70.4921   -5.6144 C.3     1  UNL1        0.2383
      7 C          17.3171   69.0488   -5.0696 C.3     1  UNL1        0.1895
      8 O          16.0378   68.5081   -5.4076 O.3     1  UNL1       -0.3779
      9 C          17.4392   69.2649   -3.5386 C.3     1  UNL1        0.1713
     10 C          18.1613   70.6188   -3.4082 C.3     1  UNL1        0.1764
     11 O          18.4535   71.0809   -4.7383 O.3     1  UNL1       -0.3308
     12 O          16.1442   69.3210   -2.9372 O.3     1  UNL1       -0.3794
     13 H          16.0077   67.6131   -5.0417 H       1  UNL1        0.2106
     14 H          15.7209   68.4678   -3.1034 H       1  UNL1        0.2105
     15 N          17.9519   70.4759   -6.9961 N.ar    1  UNL1       -0.2551
     16 C          17.0719   70.3891   -8.0092 C.ar    1  UNL1        0.3323
     17 N          17.4895   70.3760   -9.2888 N.ar    1  UNL1       -0.2743
     18 C          18.8039   70.4400   -9.5757 C.ar    1  UNL1        0.2626
     19 C          19.7427   70.5259   -8.5187 C.ar    1  UNL1        0.0795
     20 C          19.2966   70.5416   -7.2446 C.ar    1  UNL1        0.0869
     21 O          15.8829   70.3312   -7.7659 O.2     1  UNL1       -0.2464
     22 O          19.1831   70.4233  -10.7335 O.2     1  UNL1       -0.2670
     23 H          16.8401   70.3172  -10.0075 H       1  UNL1        0.1734
     24 O          21.5027   71.6095   -3.6521 O.3     1  UNL1       -0.2703
     25 P          22.9162   72.2843   -4.0221 P.3     1  UNL1        0.2208
     26 O          24.0126   71.4927   -3.4219 O.2     1  UNL1       -0.5170
     27 O          23.0924   72.3167   -5.6228 O.3     1  UNL1       -0.4371
     28 O          22.9613   73.7871   -3.4480 O.3     1  UNL1       -0.2858
     29 C          24.3388   74.1305   -3.2922 C.3     1  UNL1        0.2704
     30 C          24.5141   74.9706   -2.0261 C.3     1  UNL1        0.1967
     31 C          23.6519   76.2315   -2.1410 C.3     1  UNL1        0.1715
     32 C          24.0010   76.9460   -3.4514 C.3     1  UNL1        0.1694
     33 C          23.8626   75.9559   -4.6105 C.3     1  UNL1        0.1761
     34 O          24.1046   74.2111   -0.8874 O.3     1  UNL1       -0.3775
     35 O          23.9164   77.0964   -1.0345 O.3     1  UNL1       -0.3794
     36 O          25.3430   77.4308   -3.3885 O.3     1  UNL1       -0.3794
     37 O          24.7733   74.8725   -4.4294 O.3     1  UNL1       -0.3258
     38 H          24.6677   73.4256   -0.8587 H       1  UNL1        0.2106
     39 H          23.6947   76.6032   -0.2346 H       1  UNL1        0.2105
     40 H          25.3843   78.0442   -2.6433 H       1  UNL1        0.2105
     41 C          24.1758   76.6686   -5.9280 C.3     1  UNL1        0.1693
     42 O          24.3210   75.7011   -6.9691 O.3     1  UNL1       -0.3794
     43 H          24.5165   76.1900   -7.7803 H       1  UNL1        0.2105
@<TRIPOS>BOND
     1    15    16   ar
     2    15    20   ar
     3    15     6    1
     4    16    17   ar
     5    16    21    2
     6    17    18   ar
     7    17    23    1
     8    18    19   ar
     9    18    22    2
    10    19    20   ar
    11     6     7    1
    12     6    11    1
    13     7     8    1
    14     7     9    1
    15     8    13    1
    16     9    10    1
    17     9    12    1
    18    10    11    1
    19    10     5    1
    20    12    14    1
    21     5     4    1
    22     4     1    1
    23     1     2    2
    24     1     3    1
    25     1    24    1
    26    24    25    1
    27    25    26    2
    28    25    27    1
    29    25    28    1
    30    28    29    1
    31    29    30    1
    32    29    37    1
    33    30    31    1
    34    30    34    1
    35    31    32    1
    36    31    35    1
    37    32    33    1
    38    32    36    1
    39    33    41    1
    40    33    37    1
    41    41    42    1
    42    34    38    1
    43    35    39    1
    44    36    40    1
    45    42    43    1
@<TRIPOS>MOLECULE
GDU
 43 45 0 0 0
SMALL
GASTEIGER

@<TRIPOS>ATOM
      1 P          21.7027   72.6667   -6.1479 P.3     1  UNL1        0.2189
      2 O          22.9700   72.4148   -6.8689 O.2     1  UNL1       -0.5170
      3 O          21.7164   74.1594   -5.5440 O.3     1  UNL1       -0.4371
      4 O          20.4662   72.5105   -7.1645 O.3     1  UNL1       -0.3112
      5 C          20.7643   71.3990   -8.0109 C.3     1  UNL1        0.1811
      6 C          17.5937   70.1304   -6.8861 C.3     1  UNL1        0.2383
      7 C          17.2312   71.1817   -7.9661 C.3     1  UNL1        0.1895
      8 O          16.0205   70.8261   -8.6377 O.3     1  UNL1       -0.3779
      9 C          18.4444   71.0910   -8.9279 C.3     1  UNL1        0.1713
     10 C          19.5568   70.4616   -8.0689 C.3     1  UNL1        0.1764
     11 O          19.0237   70.2696   -6.7471 O.3     1  UNL1       -0.3308
     12 O          18.1342   70.2571  -10.0461 O.3     1  UNL1       -0.3794
     13 H          15.8518   71.5173   -9.2931 H       1  UNL1        0.2106
     14 H          17.3942   70.6729  -10.5088 H       1  UNL1        0.2105
     15 N          16.9207   70.4333   -5.6219 N.ar    1  UNL1       -0.2551
     16 C          16.4733   69.4292   -4.8474 C.ar    1  UNL1        0.3323
     17 N          15.8544   69.6803   -3.6787 N.ar    1  UNL1       -0.2743
     18 C          15.6637   70.9492   -3.2692 C.ar    1  UNL1        0.2626
     19 C          16.1245   72.0172   -4.0776 C.ar    1  UNL1        0.0795
     20 C          16.7458   71.7371   -5.2429 C.ar    1  UNL1        0.0869
     21 O          16.6385   68.2794   -5.2033 O.2     1  UNL1       -0.2464
     22 O          15.0993   71.1777   -2.2139 O.2     1  UNL1       -0.2670
     23 H          15.5417   68.9433   -3.1303 H       1  UNL1        0.1734
     24 O          21.5493   71.6049   -4.9472 O.3     1  UNL1       -0.2703
     25 P          22.5333   72.0877   -3.7688 P.3     1  UNL1        0.2208
     26 O          22.6026   71.0417   -2.7247 O.2     1  UNL1       -0.5170
     27 O          24.0055   72.3432   -4.3702 O.3     1  UNL1       -0.4371
     28 O          21.9733   73.4527   -3.1260 O.3     1  UNL1       -0.2858
     29 C          22.5121   73.5416   -1.8064 C.3     1  UNL1        0.2704
     30 C          21.6693   74.5114   -0.9766 C.3     1  UNL1        0.1967
     31 C          21.6745   75.8840   -1.6564 C.3     1  UNL1        0.1715
     32 C          23.1285   76.3130   -1.8832 C.3     1  UNL1        0.1694
     33 C          23.8606   75.2065   -2.6466 C.3     1  UNL1        0.1761
     34 O          20.3289   74.0249   -0.8872 O.3     1  UNL1       -0.3775
     35 O          21.0153   76.8368   -0.8197 O.3     1  UNL1       -0.3794
     36 O          23.7643   76.5318   -0.6231 O.3     1  UNL1       -0.3794
     37 O          23.8581   74.0064   -1.8748 O.3     1  UNL1       -0.3258
     38 H          20.3744   73.1584   -0.4607 H       1  UNL1        0.2106
     39 H          20.1113   76.5213   -0.6947 H       1  UNL1        0.2105
     40 H          23.2677   77.2299   -0.1766 H       1  UNL1        0.2105
     41 C          25.3049   75.6395   -2.9085 C.3     1  UNL1        0.1693
     42 O          25.8792   74.7984   -3.9103 O.3     1  UNL1       -0.3794
     43 H          26.7866   75.1043   -4.0460 H       1  UNL1        0.2105
@<TRIPOS>BOND
     1    15    16   ar
     2    15    20   ar
     3    15     6    1
     4    16    17   ar
     5    16    21    2
     6    17    18   ar
     7    17    23    1
     8    18    19   ar
     9    18    22    2
    10    19    20   ar
    11     6     7    1
    12     6    11    1
    13     7     8    1
    14     7     9    1
    15     8    13    1
    16     9    10    1
    17     9    12    1
    18    10    11    1
    19    10     5    1
    20    12    14    1
    21     5     4    1
    22     4     1    1
    23     1     2    2
    24     1     3    1
    25     1    24    1
    26    24    25    1
    27    25    26    2
    28    25    27    1
    29    25    28    1
    30    28    29    1
    31    29    30    1
    32    29    37    1
    33    30    31    1
    34    30    34    1
    35    31    32    1
    36    31    35    1
    37    32    33    1
    38    32    36    1
    39    33    41    1
    40    33    37    1
    41    41    42    1
    42    34    38    1
    43    35    39    1
    44    36    40    1
    45    42    43    1
@<TRIPOS>MOLECULE
GDU
 43 45 0 0 0
SMALL
GASTEIGER

@<TRIPOS>ATOM
      1 P          21.8617   72.3121   -1.3909 P.3     1  UNL1        0.2189
      2 O          22.5181   70.9867   -1.4378 O.2     1  UNL1       -0.5170
      3 O          22.9724   73.4669   -1.5517 O.3     1  UNL1       -0.4371
      4 O          20.7932   72.4248   -2.5876 O.3     1  UNL1       -0.3112
      5 C          21.4539   73.0792   -3.6720 C.3     1  UNL1        0.1811
      6 C          20.3942   71.2036   -6.5507 C.3     1  UNL1        0.2383
      7 C          21.0124   72.4989   -7.1362 C.3     1  UNL1        0.1895
      8 O          21.5957   72.2516   -8.4175 O.3     1  UNL1       -0.3779
      9 C          22.1035   72.8407   -6.0884 C.3     1  UNL1        0.1713
     10 C          21.6539   72.0897   -4.8214 C.3     1  UNL1        0.1764
     11 O          20.4092   71.4371   -5.1263 O.3     1  UNL1       -0.3308
     12 O          23.3811   72.3749   -6.5274 O.3     1  UNL1       -0.3794
     13 H          21.9603   73.0932   -8.7251 H       1  UNL1        0.2106
     14 H          23.5794   72.8375   -7.3528 H       1  UNL1        0.2105
     15 N          19.0228   71.0219   -7.0292 N.ar    1  UNL1       -0.2551
     16 C          18.7914   70.2723   -8.1214 C.ar    1  UNL1        0.3323
     17 N          17.5396   70.0864   -8.5800 N.ar    1  UNL1       -0.2743
     18 C          16.4940   70.6600   -7.9541 C.ar    1  UNL1        0.2626
     19 C          16.7231   71.4570   -6.8059 C.ar    1  UNL1        0.0795
     20 C          17.9881   71.6235   -6.3646 C.ar    1  UNL1        0.0869
     21 O          19.7246   69.7481   -8.6962 O.2     1  UNL1       -0.2464
     22 O          15.3610   70.4963   -8.3714 O.2     1  UNL1       -0.2670
     23 H          17.3906   69.5388   -9.3672 H       1  UNL1        0.1734
     24 O          21.1083   72.4871    0.0213 O.3     1  UNL1       -0.2703
     25 P          21.9468   71.6432    1.1052 P.3     1  UNL1        0.2208
     26 O          21.5567   70.2180    1.0295 O.2     1  UNL1       -0.5170
     27 O          23.5208   71.7854    0.7948 O.3     1  UNL1       -0.4371
     28 O          21.6390   72.2072    2.5808 O.3     1  UNL1       -0.2858
     29 C          22.0136   73.5854    2.5847 C.3     1  UNL1        0.2704
     30 C          22.9879   73.8450    3.7347 C.3     1  UNL1        0.1967
     31 C          22.3125   73.4643    5.0559 C.3     1  UNL1        0.1715
     32 C          20.9749   74.2065    5.1541 C.3     1  UNL1        0.1694
     33 C          20.1519   73.9176    3.8963 C.3     1  UNL1        0.1761
     34 O          24.1648   73.0558    3.5523 O.3     1  UNL1       -0.3775
     35 O          23.1530   73.8378    6.1498 O.3     1  UNL1       -0.3794
     36 O          21.2142   75.6104    5.2624 O.3     1  UNL1       -0.3794
     37 O          20.8491   74.3921    2.7453 O.3     1  UNL1       -0.3258
     38 H          24.5519   73.3234    2.7077 H       1  UNL1        0.2106
     39 H          23.9839   73.3582    6.0407 H       1  UNL1        0.2105
     40 H          21.7387   75.7440    6.0626 H       1  UNL1        0.2105
     41 C          18.7996   74.6266    3.9997 C.3     1  UNL1        0.1693
     42 O          18.4139   74.7169    5.3723 O.3     1  UNL1       -0.3794
     43 H          17.5594   75.1694    5.3937 H       1  UNL1        0.2105
@<TRIPOS>BOND
     1    15    16   ar
     2    15    20   ar
     3    15     6    1
     4    16    17   ar
     5    16    21    2
     6    17    18   ar
     7    17    23    1
     8    18    19   ar
     9    18    22    2
    10    19    20   ar
    11     6     7    1
    12     6    11    1
    13     7     8    1
    14     7     9    1
    15     8    13    1
    16     9    10    1
    17     9    12    1
    18    10    11    1
    19    10     5    1
    20    12    14    1
    21     5     4    1
    22     4     1    1
    23     1     2    2
    24     1     3    1
    25     1    24    1
    26    24    25    1
    27    25    26    2
    28    25    27    1
    29    25    28    1
    30    28    29    1
    31    29    30    1
    32    29    37    1
    33    30    31    1
    34    30    34    1
    35    31    32    1
    36    31    35    1
    37    32    33    1
    38    32    36    1
    39    33    41    1
    40    33    37    1
    41    41    42    1
    42    34    38    1
    43    35    39    1
    44    36    40    1
    45    42    43    1
@<TRIPOS>MOLECULE
GDU
 43 45 0 0 0
SMALL
GASTEIGER

@<TRIPOS>ATOM
      1 P          23.5516   72.1184   -3.3795 P.3     1  UNL1        0.2189
      2 O          24.2858   72.8005   -4.4682 O.2     1  UNL1       -0.5170
      3 O          24.3047   70.7460   -3.0022 O.3     1  UNL1       -0.4371
      4 O          23.4982   73.0740   -2.0869 O.3     1  UNL1       -0.3112
      5 C          22.4140   72.6153   -1.2777 C.3     1  UNL1        0.1811
      6 C          24.3074   71.7099    1.6416 C.3     1  UNL1        0.2383
      7 C          22.8881   72.0234    2.1802 C.3     1  UNL1        0.1895
      8 O          22.5955   71.2349    3.3360 O.3     1  UNL1       -0.3779
      9 C          21.9888   71.6097    0.9863 C.3     1  UNL1        0.1713
     10 C          22.9391   71.6372   -0.2252 C.3     1  UNL1        0.1764
     11 O          24.2261   72.0722    0.2468 O.3     1  UNL1       -0.3308
     12 O          21.4630   70.2965    1.1884 O.3     1  UNL1       -0.3794
     13 H          21.7031   71.4770    3.6201 H       1  UNL1        0.2106
     14 H          20.9262   70.3303    1.9918 H       1  UNL1        0.2105
     15 N          25.3131   72.5226    2.3279 N.ar    1  UNL1       -0.2551
     16 C          26.4928   71.9753    2.6698 C.ar    1  UNL1        0.3323
     17 N          27.4359   72.7016    3.2982 N.ar    1  UNL1       -0.2743
     18 C          27.2073   73.9931    3.6050 C.ar    1  UNL1        0.2626
     19 C          25.9670   74.5814    3.2561 C.ar    1  UNL1        0.0795
     20 C          25.0403   73.8314    2.6225 C.ar    1  UNL1        0.0869
     21 O          26.7136   70.8116    2.3992 O.2     1  UNL1       -0.2464
     22 O          28.0585   74.6500    4.1781 O.2     1  UNL1       -0.2670
     23 H          28.2833   72.2915    3.5337 H       1  UNL1        0.1734
     24 O          22.0530   71.7898   -3.8679 O.3     1  UNL1       -0.2703
     25 P          21.7802   72.6892   -5.1742 P.3     1  UNL1        0.2208
     26 O          21.9321   74.1198   -4.8284 O.2     1  UNL1       -0.5170
     27 O          22.8388   72.3002   -6.3240 O.3     1  UNL1       -0.4371
     28 O          20.2862   72.4212   -5.7092 O.3     1  UNL1       -0.2858
     29 C          20.2593   71.0852   -6.2132 C.3     1  UNL1        0.2704
     30 C          19.7453   71.0947   -7.6537 C.3     1  UNL1        0.1967
     31 C          18.3429   71.7105   -7.6787 C.3     1  UNL1        0.1715
     32 C          17.4599   70.9591   -6.6760 C.3     1  UNL1        0.1694
     33 C          18.1470   70.9617   -5.3081 C.3     1  UNL1        0.1761
     34 O          20.6246   71.8699   -8.4706 O.3     1  UNL1       -0.3775
     35 O          17.7901   71.5928   -8.9913 O.3     1  UNL1       -0.3794
     36 O          17.2717   69.6144   -7.1190 O.3     1  UNL1       -0.3794
     37 O          19.4020   70.2889   -5.3986 O.3     1  UNL1       -0.3258
     38 H          21.4946   71.4511   -8.4194 H       1  UNL1        0.2106
     39 H          18.3821   72.0680   -9.5879 H       1  UNL1        0.2105
     40 H          16.8429   69.6619   -7.9834 H       1  UNL1        0.2105
     41 C          17.2573   70.2433   -4.2911 C.3     1  UNL1        0.1693
     42 O          17.4376   68.8315   -4.4151 O.3     1  UNL1       -0.3794
     43 H          16.8615   68.4170   -3.7581 H       1  UNL1        0.2105
@<TRIPOS>BOND
     1    15    16   ar
     2    15    20   ar
     3    15     6    1
     4    16    17   ar
     5    16    21    2
     6    17    18   ar
     7    17    23    1
     8    18    19   ar
     9    18    22    2
    10    19    20   ar
    11     6     7    1
    12     6    11    1
    13     7     8    1
    14     7     9    1
    15     8    13    1
    16     9    10    1
    17     9    12    1
    18    10    11    1
    19    10     5    1
    20    12    14    1
    21     5     4    1
    22     4     1    1
    23     1     2    2
    24     1     3    1
    25     1    24    1
    26    24    25    1
    27    25    26    2
    28    25    27    1
    29    25    28    1
    30    28    29    1
    31    29    30    1
    32    29    37    1
    33    30    31    1
    34    30    34    1
    35    31    32    1
    36    31    35    1
    37    32    33    1
    38    32    36    1
    39    33    41    1
    40    33    37    1
    41    41    42    1
    42    34    38    1
    43    35    39    1
    44    36    40    1
    45    42    43    1
@<TRIPOS>MOLECULE
GDU
 43 45 0 0 0
SMALL
GASTEIGER

@<TRIPOS>ATOM
      1 P          23.0850   71.4844   -1.8841 P.3     1  UNL1        0.2189
      2 O          21.8155   70.7277   -1.9558 O.2     1  UNL1       -0.5170
      3 O          24.1231   70.8943   -2.9645 O.3     1  UNL1       -0.4371
      4 O          22.8041   73.0359   -2.2016 O.3     1  UNL1       -0.3112
      5 C          21.5950   73.0907   -2.9603 C.3     1  UNL1        0.1811
      6 C          20.7289   72.3354   -6.3672 C.3     1  UNL1        0.2383
      7 C          20.7396   73.8842   -6.3026 C.3     1  UNL1        0.1895
      8 O          21.1210   74.4444   -7.5611 O.3     1  UNL1       -0.3779
      9 C          21.8213   74.1569   -5.2252 C.3     1  UNL1        0.1713
     10 C          21.9053   72.8368   -4.4366 C.3     1  UNL1        0.1764
     11 O          20.9291   71.9396   -4.9936 O.3     1  UNL1       -0.3308
     12 O          23.0746   74.4602   -5.8410 O.3     1  UNL1       -0.3794
     13 H          21.1077   75.4057   -7.4540 H       1  UNL1        0.2106
     14 H          22.9421   75.2611   -6.3660 H       1  UNL1        0.2105
     15 N          19.4409   71.8466   -6.8623 N.ar    1  UNL1       -0.2551
     16 C          19.3687   71.2668   -8.0735 C.ar    1  UNL1        0.3323
     17 N          18.1975   70.8057   -8.5507 N.ar    1  UNL1       -0.2743
     18 C          17.0712   70.9276   -7.8221 C.ar    1  UNL1        0.2626
     19 C          17.1312   71.5413   -6.5470 C.ar    1  UNL1        0.0795
     20 C          18.3194   71.9911   -6.0907 C.ar    1  UNL1        0.0869
     21 O          20.3764   71.1494   -8.7420 O.2     1  UNL1       -0.2464
     22 O          16.0098   70.5148   -8.2552 O.2     1  UNL1       -0.2670
     23 H          18.1646   70.3861   -9.4251 H       1  UNL1        0.1734
     24 O          23.7108   71.3422   -0.4074 O.3     1  UNL1       -0.2703
     25 P          22.4731   71.2418    0.6162 P.3     1  UNL1        0.2208
     26 O          21.6296   70.0804    0.2575 O.2     1  UNL1       -0.5170
     27 O          23.0308   71.0565    2.1158 O.3     1  UNL1       -0.4371
     28 O          21.5964   72.5889    0.5337 O.3     1  UNL1       -0.2858
     29 C          22.0252   73.4294    1.6058 C.3     1  UNL1        0.2704
     30 C          20.8684   73.6359    2.5849 C.3     1  UNL1        0.1967
     31 C          19.6906   74.2700    1.8384 C.3     1  UNL1        0.1715
     32 C          20.1832   75.5390    1.1336 C.3     1  UNL1        0.1694
     33 C          21.3917   75.1873    0.2624 C.3     1  UNL1        0.1761
     34 O          20.4702   72.3759    3.1280 O.3     1  UNL1       -0.3775
     35 O          18.6573   74.6042    2.7674 O.3     1  UNL1       -0.3794
     36 O          20.5584   76.5124    2.1092 O.3     1  UNL1       -0.3794
     37 O          22.4467   74.6867    1.0823 O.3     1  UNL1       -0.3258
     38 H          21.2424   72.0110    3.5813 H       1  UNL1        0.2106
     39 H          18.3876   73.7811    3.1940 H       1  UNL1        0.2105
     40 H          19.7705   76.6982    2.6365 H       1  UNL1        0.2105
     41 C          21.8704   76.4413   -0.4727 C.3     1  UNL1        0.1693
     42 O          22.8224   76.0723   -1.4720 O.3     1  UNL1       -0.3794
     43 H          23.0978   76.8886   -1.9113 H       1  UNL1        0.2105
@<TRIPOS>BOND
     1    15    16   ar
     2    15    20   ar
     3    15     6    1
     4    16    17   ar
     5    16    21    2
     6    17    18   ar
     7    17    23    1
     8    18    19   ar
     9    18    22    2
    10    19    20   ar
    11     6     7    1
    12     6    11    1
    13     7     8    1
    14     7     9    1
    15     8    13    1
    16     9    10    1
    17     9    12    1
    18    10    11    1
    19    10     5    1
    20    12    14    1
    21     5     4    1
    22     4     1    1
    23     1     2    2
    24     1     3    1
    25     1    24    1
    26    24    25    1
    27    25    26    2
    28    25    27    1
    29    25    28    1
    30    28    29    1
    31    29    30    1
    32    29    37    1
    33    30    31    1
    34    30    34    1
    35    31    32    1
    36    31    35    1
    37    32    33    1
    38    32    36    1
    39    33    41    1
    40    33    37    1
    41    41    42    1
    42    34    38    1
    43    35    39    1
    44    36    40    1
    45    42    43    1
@<TRIPOS>MOLECULE
GDU
 43 45 0 0 0
SMALL
GASTEIGER

@<TRIPOS>ATOM
      1 P          16.0984   69.6773   -2.4116 P.3     1  UNL1        0.2189
      2 O          16.6808   70.9848   -2.0362 O.2     1  UNL1       -0.5170
      3 O          17.0663   68.4938   -1.9061 O.3     1  UNL1       -0.4371
      4 O          14.6520   69.5171   -1.7266 O.3     1  UNL1       -0.3112
      5 C          14.8420   68.7581   -0.5314 C.3     1  UNL1        0.1811
      6 C          11.4817   67.6383    0.0867 C.3     1  UNL1        0.2383
      7 C          12.3730   66.6563    0.8893 C.3     1  UNL1        0.1895
      8 O          11.6922   66.1864    2.0551 O.3     1  UNL1       -0.3779
      9 C          13.5778   67.5530    1.2761 C.3     1  UNL1        0.1713
     10 C          13.5306   68.7043    0.2544 C.3     1  UNL1        0.1764
     11 O          12.4355   68.4418   -0.6401 O.3     1  UNL1       -0.3308
     12 O          13.4239   68.0497    2.6071 O.3     1  UNL1       -0.3794
     13 H          12.2979   65.5826    2.5073 H       1  UNL1        0.2106
     14 H          13.4015   67.2804    3.1923 H       1  UNL1        0.2105
     15 N          10.6106   66.9101   -0.8373 N.ar    1  UNL1       -0.2551
     16 C           9.4390   67.4511   -1.2155 C.ar    1  UNL1        0.3323
     17 N           8.6213   66.8040   -2.0667 N.ar    1  UNL1       -0.2743
     18 C           8.9614   65.5928   -2.5480 C.ar    1  UNL1        0.2626
     19 C          10.1899   65.0082   -2.1538 C.ar    1  UNL1        0.0795
     20 C          10.9931   65.6807   -1.3023 C.ar    1  UNL1        0.0869
     21 O           9.1188   68.5431   -0.7900 O.2     1  UNL1       -0.2464
     22 O           8.2197   65.0042   -3.3148 O.2     1  UNL1       -0.2670
     23 H           7.7814   67.2112   -2.3323 H       1  UNL1        0.1734
     24 O          15.9472   69.5981   -4.0126 O.3     1  UNL1       -0.2703
     25 P          17.0307   70.6127   -4.6344 P.3     1  UNL1        0.2208
     26 O          16.4847   71.9877   -4.6184 O.2     1  UNL1       -0.5170
     27 O          18.3797   70.5612   -3.7560 O.3     1  UNL1       -0.4371
     28 O          17.3618   70.1833   -6.1497 O.3     1  UNL1       -0.2858
     29 C          17.5929   71.3880   -6.8813 C.3     1  UNL1        0.2704
     30 C          17.3112   71.1447   -8.3648 C.3     1  UNL1        0.1967
     31 C          18.2244   70.0226   -8.8682 C.3     1  UNL1        0.1715
     32 C          19.6755   70.3829   -8.5303 C.3     1  UNL1        0.1694
     33 C          19.7782   70.6822   -7.0326 C.3     1  UNL1        0.1761
     34 O          15.9446   70.7651   -8.5365 O.3     1  UNL1       -0.3775
     35 O          18.0787   69.8835  -10.2831 O.3     1  UNL1       -0.3794
     36 O          20.0694   71.5328   -9.2803 O.3     1  UNL1       -0.3794
     37 O          18.9478   71.7957   -6.7062 O.3     1  UNL1       -0.3258
     38 H          15.4078   71.4958   -8.2006 H       1  UNL1        0.2106
     39 H          17.1519   69.6696  -10.4493 H       1  UNL1        0.2105
     40 H          19.9835   71.3007  -10.2142 H       1  UNL1        0.2105
     41 C          21.2304   71.0099   -6.6782 C.3     1  UNL1        0.1693
     42 O          21.4864   72.3891   -6.9491 O.3     1  UNL1       -0.3794
     43 H          22.4094   72.5542   -6.7122 H       1  UNL1        0.2105
@<TRIPOS>BOND
     1    15    16   ar
     2    15    20   ar
     3    15     6    1
     4    16    17   ar
     5    16    21    2
     6    17    18   ar
     7    17    23    1
     8    18    19   ar
     9    18    22    2
    10    19    20   ar
    11     6     7    1
    12     6    11    1
    13     7     8    1
    14     7     9    1
    15     8    13    1
    16     9    10    1
    17     9    12    1
    18    10    11    1
    19    10     5    1
    20    12    14    1
    21     5     4    1
    22     4     1    1
    23     1     2    2
    24     1     3    1
    25     1    24    1
    26    24    25    1
    27    25    26    2
    28    25    27    1
    29    25    28    1
    30    28    29    1
    31    29    30    1
    32    29    37    1
    33    30    31    1
    34    30    34    1
    35    31    32    1
    36    31    35    1
    37    32    33    1
    38    32    36    1
    39    33    41    1
    40    33    37    1
    41    41    42    1
    42    34    38    1
    43    35    39    1
    44    36    40    1
    45    42    43    1
@<TRIPOS>MOLECULE
GDU
 43 45 0 0 0
SMALL
GASTEIGER

@<TRIPOS>ATOM
      1 P          21.8615   72.3518   -6.3924 P.3     1  UNL1        0.2189
      2 O          23.2422   72.7441   -6.7520 O.2     1  UNL1       -0.5170
      3 O          20.8446   73.5314   -6.8016 O.3     1  UNL1       -0.4371
      4 O          21.4643   71.0049   -7.1766 O.3     1  UNL1       -0.3112
      5 C          20.5398   71.3789   -8.1993 C.3     1  UNL1        0.1811
      6 C          17.4262   70.1105   -6.9249 C.3     1  UNL1        0.2383
      7 C          17.0135   71.1160   -8.0302 C.3     1  UNL1        0.1895
      8 O          15.7870   70.7196   -8.6481 O.3     1  UNL1       -0.3779
      9 C          18.1961   71.0060   -9.0275 C.3     1  UNL1        0.1713
     10 C          19.3449   70.4239   -8.1831 C.3     1  UNL1        0.1764
     11 O          18.8577   70.2739   -6.8383 O.3     1  UNL1       -0.3308
     12 O          17.8621   70.1271  -10.1035 O.3     1  UNL1       -0.3794
     13 H          15.5871   71.3837   -9.3225 H       1  UNL1        0.2106
     14 H          17.1014   70.5154  -10.5566 H       1  UNL1        0.2105
     15 N          16.7901   70.4510   -5.6512 N.ar    1  UNL1       -0.2551
     16 C          16.4311   69.4719   -4.8023 C.ar    1  UNL1        0.3323
     17 N          15.8480   69.7581   -3.6234 N.ar    1  UNL1       -0.2743
     18 C          15.6045   71.0370   -3.2780 C.ar    1  UNL1        0.2626
     19 C          15.9720   72.0785   -4.1648 C.ar    1  UNL1        0.0795
     20 C          16.5593   71.7638   -5.3389 C.ar    1  UNL1        0.0869
     21 O          16.6448   68.3135   -5.1000 O.2     1  UNL1       -0.2464
     22 O          15.0724   71.2969   -2.2132 O.2     1  UNL1       -0.2670
     23 H          15.5993   69.0390   -3.0210 H       1  UNL1        0.1734
     24 O          21.7735   72.0959   -4.8052 O.3     1  UNL1       -0.2703
     25 P          22.7926   73.1286   -4.1088 P.3     1  UNL1        0.2208
     26 O          24.1677   72.5872   -4.1789 O.2     1  UNL1       -0.5170
     27 O          22.7331   74.5422   -4.8784 O.3     1  UNL1       -0.4371
     28 O          22.3757   73.3395   -2.5688 O.3     1  UNL1       -0.2858
     29 C          23.3416   72.6450   -1.7785 C.3     1  UNL1        0.2704
     30 C          22.7231   71.3558   -1.2356 C.3     1  UNL1        0.1967
     31 C          21.4909   71.7085   -0.3969 C.3     1  UNL1        0.1715
     32 C          21.8992   72.7343    0.6665 C.3     1  UNL1        0.1694
     33 C          22.5788   73.9208   -0.0215 C.3     1  UNL1        0.1761
     34 O          22.3382   70.5142   -2.3241 O.3     1  UNL1       -0.3775
     35 O          20.9882   70.5304    0.2371 O.3     1  UNL1       -0.3794
     36 O          22.8042   72.1295    1.5912 O.3     1  UNL1       -0.3794
     37 O          23.7547   73.4767   -0.6968 O.3     1  UNL1       -0.3258
     38 H          23.1416   70.3240   -2.8274 H       1  UNL1        0.2106
     39 H          20.7562   69.9113   -0.4666 H       1  UNL1        0.2105
     40 H          22.3369   71.3865    1.9948 H       1  UNL1        0.2105
     41 C          22.9599   74.9670    1.0283 C.3     1  UNL1        0.1693
     42 O          24.0730   75.7291    0.5579 O.3     1  UNL1       -0.3794
     43 H          24.2805   76.3757    1.2464 H       1  UNL1        0.2105
@<TRIPOS>BOND
     1    15    16   ar
     2    15    20   ar
     3    15     6    1
     4    16    17   ar
     5    16    21    2
     6    17    18   ar
     7    17    23    1
     8    18    19   ar
     9    18    22    2
    10    19    20   ar
    11     6     7    1
    12     6    11    1
    13     7     8    1
    14     7     9    1
    15     8    13    1
    16     9    10    1
    17     9    12    1
    18    10    11    1
    19    10     5    1
    20    12    14    1
    21     5     4    1
    22     4     1    1
    23     1     2    2
    24     1     3    1
    25     1    24    1
    26    24    25    1
    27    25    26    2
    28    25    27    1
    29    25    28    1
    30    28    29    1
    31    29    30    1
    32    29    37    1
    33    30    31    1
    34    30    34    1
    35    31    32    1
    36    31    35    1
    37    32    33    1
    38    32    36    1
    39    33    41    1
    40    33    37    1
    41    41    42    1
    42    34    38    1
    43    35    39    1
    44    36    40    1
    45    42    43    1
@<TRIPOS>MOLECULE
GDU
 43 45 0 0 0
SMALL
GASTEIGER

@<TRIPOS>ATOM
      1 P          19.0177   74.2362   -2.9823 P.3     1  UNL1        0.2189
      2 O          18.2587   73.9965   -1.7349 O.2     1  UNL1       -0.5170
      3 O          18.4031   75.5129   -3.7474 O.3     1  UNL1       -0.4371
      4 O          20.5611   74.5155   -2.6266 O.3     1  UNL1       -0.3112
      5 C          20.7449   74.1422   -1.2601 C.3     1  UNL1        0.1811
      6 C          23.0866   71.7682    0.0844 C.3     1  UNL1        0.2383
      7 C          21.7676   71.4898    0.8497 C.3     1  UNL1        0.1895
      8 O          21.6701   70.1108    1.2131 O.3     1  UNL1       -0.3779
      9 C          20.6945   71.8606   -0.2068 C.3     1  UNL1        0.1713
     10 C          21.4403   72.7814   -1.1905 C.3     1  UNL1        0.1764
     11 O          22.7814   72.9428   -0.6969 O.3     1  UNL1       -0.3308
     12 O          20.2208   70.6872   -0.8707 O.3     1  UNL1       -0.3794
     13 H          20.8317   70.0051    1.6839 H       1  UNL1        0.2106
     14 H          19.8180   70.1261   -0.1943 H       1  UNL1        0.2105
     15 N          24.1801   72.0400    1.0189 N.ar    1  UNL1       -0.2551
     16 C          24.8800   71.0179    1.5419 C.ar    1  UNL1        0.3323
     17 N          25.8924   71.2407    2.4006 N.ar    1  UNL1       -0.2743
     18 C          26.2157   72.4982    2.7590 C.ar    1  UNL1        0.2626
     19 C          25.4834   73.5844    2.2205 C.ar    1  UNL1        0.0795
     20 C          24.4756   73.3330    1.3581 C.ar    1  UNL1        0.0869
     21 O          24.6003   69.8781    1.2276 O.2     1  UNL1       -0.2464
     22 O          27.1288   72.7006    3.5399 O.2     1  UNL1       -0.2670
     23 H          26.3896   70.4912    2.7650 H       1  UNL1        0.1734
     24 O          18.9105   72.9404   -3.9320 O.3     1  UNL1       -0.2703
     25 P          20.0335   73.1040   -5.0731 P.3     1  UNL1        0.2208
     26 O          20.3984   74.5318   -5.2047 O.2     1  UNL1       -0.5170
     27 O          21.3388   72.2523   -4.6671 O.3     1  UNL1       -0.4371
     28 O          19.4574   72.5648   -6.4758 O.3     1  UNL1       -0.2858
     29 C          20.0507   71.2859   -6.7039 C.3     1  UNL1        0.2704
     30 C          20.3888   71.1389   -8.1883 C.3     1  UNL1        0.1967
     31 C          19.1052   71.2940   -9.0098 C.3     1  UNL1        0.1715
     32 C          18.0606   70.3064   -8.4778 C.3     1  UNL1        0.1694
     33 C          17.8976   70.5181   -6.9706 C.3     1  UNL1        0.1761
     34 O          21.3265   72.1478   -8.5677 O.3     1  UNL1       -0.3775
     35 O          19.3782   71.0139  -10.3844 O.3     1  UNL1       -0.3794
     36 O          18.4934   68.9694   -8.7333 O.3     1  UNL1       -0.3794
     37 O          19.1374   70.2636   -6.3119 O.3     1  UNL1       -0.3258
     38 H          22.1137   72.0165   -8.0218 H       1  UNL1        0.2106
     39 H          20.0463   71.6488  -10.6721 H       1  UNL1        0.2105
     40 H          18.5879   68.8840   -9.6910 H       1  UNL1        0.2105
     41 C          16.8313   69.5597   -6.4351 C.3     1  UNL1        0.1693
     42 O          15.5747   69.8570   -7.0463 O.3     1  UNL1       -0.3794
     43 H          14.9321   69.2321   -6.6833 H       1  UNL1        0.2105
@<TRIPOS>BOND
     1    15    16   ar
     2    15    20   ar
     3    15     6    1
     4    16    17   ar
     5    16    21    2
     6    17    18   ar
     7    17    23    1
     8    18    19   ar
     9    18    22    2
    10    19    20   ar
    11     6     7    1
    12     6    11    1
    13     7     8    1
    14     7     9    1
    15     8    13    1
    16     9    10    1
    17     9    12    1
    18    10    11    1
    19    10     5    1
    20    12    14    1
    21     5     4    1
    22     4     1    1
    23     1     2    2
    24     1     3    1
    25     1    24    1
    26    24    25    1
    27    25    26    2
    28    25    27    1
    29    25    28    1
    30    28    29    1
    31    29    30    1
    32    29    37    1
    33    30    31    1
    34    30    34    1
    35    31    32    1
    36    31    35    1
    37    32    33    1
    38    32    36    1
    39    33    41    1
    40    33    37    1
    41    41    42    1
    42    34    38    1
    43    35    39    1
    44    36    40    1
    45    42    43    1
@<TRIPOS>MOLECULE
GDU
 43 45 0 0 0
SMALL
GASTEIGER

@<TRIPOS>ATOM
      1 P          21.8526   74.0838   -5.2127 P.3     1  UNL1        0.2189
      2 O          21.6125   75.4974   -4.8474 O.2     1  UNL1       -0.5170
      3 O          23.4335   73.7804   -5.1730 O.3     1  UNL1       -0.4371
      4 O          21.0954   73.1231   -4.1684 O.3     1  UNL1       -0.3112
      5 C          21.6125   73.4311   -2.8729 C.3     1  UNL1        0.1811
      6 C          23.1180   71.5157   -0.2287 C.3     1  UNL1        0.2383
      7 C          21.6566   71.7402    0.2369 C.3     1  UNL1        0.1895
      8 O          21.2038   70.6479    1.0401 O.3     1  UNL1       -0.3779
      9 C          20.8904   71.7909   -1.1105 C.3     1  UNL1        0.1713
     10 C          21.9769   72.1353   -2.1461 C.3     1  UNL1        0.1764
     11 O          23.2135   72.3069   -1.4322 O.3     1  UNL1       -0.3308
     12 O          20.3004   70.5215   -1.3978 O.3     1  UNL1       -0.3794
     13 H          20.2928   70.8490    1.2961 H       1  UNL1        0.2106
     14 H          19.6744   70.3358   -0.6848 H       1  UNL1        0.2105
     15 N          24.0629   71.9962    0.7808 N.ar    1  UNL1       -0.2551
     16 C          24.7337   71.1124    1.5405 C.ar    1  UNL1        0.3323
     17 N          25.6108   71.5278    2.4733 N.ar    1  UNL1       -0.2743
     18 C          25.8240   72.8434    2.6682 C.ar    1  UNL1        0.2626
     19 C          25.1201   73.7860    1.8792 C.ar    1  UNL1        0.0795
     20 C          24.2495   73.3421    0.9479 C.ar    1  UNL1        0.0869
     21 O          24.5523   69.9224    1.3759 O.2     1  UNL1       -0.2464
     22 O          26.6141   73.2205    3.5156 O.2     1  UNL1       -0.2670
     23 H          26.0894   70.8760    3.0097 H       1  UNL1        0.1734
     24 O          21.2925   73.8117   -6.6976 O.3     1  UNL1       -0.2703
     25 P          20.9913   72.2342   -6.8009 P.3     1  UNL1        0.2208
     26 O          20.7580   71.8684   -8.2155 O.2     1  UNL1       -0.5170
     27 O          22.2533   71.4089   -6.2349 O.3     1  UNL1       -0.4371
     28 O          19.6849   71.8781   -5.9311 O.3     1  UNL1       -0.2858
     29 C          18.5575   72.3763   -6.6525 C.3     1  UNL1        0.2704
     30 C          17.7843   73.3600   -5.7729 C.3     1  UNL1        0.1967
     31 C          17.3354   72.6413   -4.4968 C.3     1  UNL1        0.1715
     32 C          16.5659   71.3758   -4.8920 C.3     1  UNL1        0.1694
     33 C          17.4331   70.5410   -5.8376 C.3     1  UNL1        0.1761
     34 O          18.6274   74.4619   -5.4320 O.3     1  UNL1       -0.3775
     35 O          16.4880   73.5026   -3.7335 O.3     1  UNL1       -0.3794
     36 O          15.3505   71.7407   -5.5475 O.3     1  UNL1       -0.3794
     37 O          17.7125   71.2885   -7.0205 O.3     1  UNL1       -0.3258
     38 H          18.8911   74.8791   -6.2634 H       1  UNL1        0.2106
     39 H          17.0076   74.2874   -3.5183 H       1  UNL1        0.2105
     40 H          14.8409   72.2681   -4.9187 H       1  UNL1        0.2105
     41 C          16.6875   69.2579   -6.2113 C.3     1  UNL1        0.1693
     42 O          15.9276   68.8055   -5.0893 O.3     1  UNL1       -0.3794
     43 H          15.4737   67.9977   -5.3661 H       1  UNL1        0.2105
@<TRIPOS>BOND
     1    15    16   ar
     2    15    20   ar
     3    15     6    1
     4    16    17   ar
     5    16    21    2
     6    17    18   ar
     7    17    23    1
     8    18    19   ar
     9    18    22    2
    10    19    20   ar
    11     6     7    1
    12     6    11    1
    13     7     8    1
    14     7     9    1
    15     8    13    1
    16     9    10    1
    17     9    12    1
    18    10    11    1
    19    10     5    1
    20    12    14    1
    21     5     4    1
    22     4     1    1
    23     1     2    2
    24     1     3    1
    25     1    24    1
    26    24    25    1
    27    25    26    2
    28    25    27    1
    29    25    28    1
    30    28    29    1
    31    29    30    1
    32    29    37    1
    33    30    31    1
    34    30    34    1
    35    31    32    1
    36    31    35    1
    37    32    33    1
    38    32    36    1
    39    33    41    1
    40    33    37    1
    41    41    42    1
    42    34    38    1
    43    35    39    1
    44    36    40    1
    45    42    43    1
@<TRIPOS>MOLECULE
GDU
 43 45 0 0 0
SMALL
GASTEIGER

@<TRIPOS>ATOM
      1 P          23.0924   71.4257   -1.8528 P.3     1  UNL1        0.2189
      2 O          21.8064   70.6937   -1.8542 O.2     1  UNL1       -0.5170
      3 O          24.0884   70.7625   -2.9304 O.3     1  UNL1       -0.4371
      4 O          22.8341   72.9659   -2.2375 O.3     1  UNL1       -0.3112
      5 C          21.6252   73.0054   -2.9974 C.3     1  UNL1        0.1811
      6 C          20.7322   72.0824   -6.3557 C.3     1  UNL1        0.2383
      7 C          20.7952   73.6311   -6.3815 C.3     1  UNL1        0.1895
      8 O          21.1946   74.1038   -7.6700 O.3     1  UNL1       -0.3779
      9 C          21.8860   73.9296   -5.3203 C.3     1  UNL1        0.1713
     10 C          21.9259   72.6556   -4.4560 C.3     1  UNL1        0.1764
     11 O          20.9198   71.7608   -4.9611 O.3     1  UNL1       -0.3308
     12 O          23.1485   74.1541   -5.9510 O.3     1  UNL1       -0.3794
     13 H          21.2136   75.0696   -7.6191 H       1  UNL1        0.2106
     14 H          23.0428   74.9270   -6.5220 H       1  UNL1        0.2105
     15 N          19.4283   71.6092   -6.8233 N.ar    1  UNL1       -0.2551
     16 C          19.2792   71.2208   -8.1021 C.ar    1  UNL1        0.3323
     17 N          18.0919   70.7783   -8.5564 N.ar    1  UNL1       -0.2743
     18 C          17.0258   70.7267   -7.7348 C.ar    1  UNL1        0.2626
     19 C          17.1666   71.1380   -6.3868 C.ar    1  UNL1        0.0795
     20 C          18.3697   71.5735   -5.9560 C.ar    1  UNL1        0.0869
     21 O          20.2319   71.2613   -8.8549 O.2     1  UNL1       -0.2464
     22 O          15.9496   70.3308   -8.1464 O.2     1  UNL1       -0.2670
     23 H          18.0034   70.4979   -9.4813 H       1  UNL1        0.1734
     24 O          23.7555   71.3410   -0.3880 O.3     1  UNL1       -0.2703
     25 P          22.5684   71.5656    0.6752 P.3     1  UNL1        0.2208
     26 O          21.5674   72.4955    0.1075 O.2     1  UNL1       -0.5170
     27 O          21.8650   70.1536    1.0001 O.3     1  UNL1       -0.4371
     28 O          23.1718   72.1877    2.0313 O.3     1  UNL1       -0.2858
     29 C          22.7352   73.5461    2.0949 C.3     1  UNL1        0.2704
     30 C          23.8704   74.4674    1.6458 C.3     1  UNL1        0.1967
     31 C          25.0823   74.2456    2.5561 C.3     1  UNL1        0.1715
     32 C          24.6390   74.4193    4.0131 C.3     1  UNL1        0.1694
     33 C          23.4457   73.4994    4.2834 C.3     1  UNL1        0.1761
     34 O          24.2239   74.1676    0.2943 O.3     1  UNL1       -0.3775
     35 O          26.0985   75.2007    2.2438 O.3     1  UNL1       -0.3794
     36 O          24.2616   75.7782    4.2390 O.3     1  UNL1       -0.3794
     37 O          22.3578   73.8599    3.4334 O.3     1  UNL1       -0.3258
     38 H          23.4315   74.3136   -0.2402 H       1  UNL1        0.2106
     39 H          26.3371   75.0630    1.3184 H       1  UNL1        0.2105
     40 H          25.0395   76.3195    4.0516 H       1  UNL1        0.2105
     41 C          23.0167   73.6398    5.7456 C.3     1  UNL1        0.1693
     42 O          21.6631   73.2054    5.8878 O.3     1  UNL1       -0.3794
     43 H          21.4325   73.3090    6.8213 H       1  UNL1        0.2105
@<TRIPOS>BOND
     1    15    16   ar
     2    15    20   ar
     3    15     6    1
     4    16    17   ar
     5    16    21    2
     6    17    18   ar
     7    17    23    1
     8    18    19   ar
     9    18    22    2
    10    19    20   ar
    11     6     7    1
    12     6    11    1
    13     7     8    1
    14     7     9    1
    15     8    13    1
    16     9    10    1
    17     9    12    1
    18    10    11    1
    19    10     5    1
    20    12    14    1
    21     5     4    1
    22     4     1    1
    23     1     2    2
    24     1     3    1
    25     1    24    1
    26    24    25    1
    27    25    26    2
    28    25    27    1
    29    25    28    1
    30    28    29    1
    31    29    30    1
    32    29    37    1
    33    30    31    1
    34    30    34    1
    35    31    32    1
    36    31    35    1
    37    32    33    1
    38    32    36    1
    39    33    41    1
    40    33    37    1
    41    41    42    1
    42    34    38    1
    43    35    39    1
    44    36    40    1
    45    42    43    1
@<TRIPOS>MOLECULE
GDU
 43 45 0 0 0
SMALL
GASTEIGER

@<TRIPOS>ATOM
      1 P          21.2589   72.7178   -4.5525 P.3     1  UNL1        0.2189
      2 O          20.1378   72.1022   -3.8085 O.2     1  UNL1       -0.5170
      3 O          20.8507   74.2097   -5.0003 O.3     1  UNL1       -0.4371
      4 O          22.5605   72.7778   -3.6095 O.3     1  UNL1       -0.3112
      5 C          22.1081   73.1326   -2.3019 C.3     1  UNL1        0.1811
      6 C          23.5976   71.7359    0.6575 C.3     1  UNL1        0.2383
      7 C          22.1646   72.1344    1.0941 C.3     1  UNL1        0.1895
      8 O          21.6829   71.2625    2.1193 O.3     1  UNL1       -0.3779
      9 C          21.3601   71.9429   -0.2179 C.3     1  UNL1        0.1713
     10 C          22.4296   72.0006   -1.3245 C.3     1  UNL1        0.1764
     11 O          23.6949   72.2495   -0.6879 O.3     1  UNL1       -0.3308
     12 O          20.6985   70.6763   -0.2179 O.3     1  UNL1       -0.3794
     13 H          20.7916   71.5633    2.3451 H       1  UNL1        0.2106
     14 H          20.0866   70.6800    0.5306 H       1  UNL1        0.2105
     15 N          24.5965   72.3647    1.5232 N.ar    1  UNL1       -0.2551
     16 C          25.5690   71.6159    2.0727 C.ar    1  UNL1        0.3323
     17 N          26.5017   72.1699    2.8694 N.ar    1  UNL1       -0.2743
     18 C          26.4696   73.4894    3.1383 C.ar    1  UNL1        0.2626
     19 C          25.4477   74.2896    2.5711 C.ar    1  UNL1        0.0795
     20 C          24.5273   73.7091    1.7721 C.ar    1  UNL1        0.0869
     21 O          25.6112   70.4244    1.8389 O.2     1  UNL1       -0.2464
     22 O          27.3106   73.9910    3.8632 O.2     1  UNL1       -0.2670
     23 H          27.1989   71.6152    3.2541 H       1  UNL1        0.1734
     24 O          21.5823   71.8360   -5.8602 O.3     1  UNL1       -0.2703
     25 P          20.7258   72.4635   -7.0696 P.3     1  UNL1        0.2208
     26 O          20.9633   73.9223   -7.1370 O.2     1  UNL1       -0.5170
     27 O          21.1780   71.7821   -8.4572 O.3     1  UNL1       -0.4371
     28 O          19.1604   72.1845   -6.8214 O.3     1  UNL1       -0.2858
     29 C          18.9377   70.7999   -7.0915 C.3     1  UNL1        0.2704
     30 C          17.9361   70.6597   -8.2389 C.3     1  UNL1        0.1967
     31 C          16.6272   71.3513   -7.8454 C.3     1  UNL1        0.1715
     32 C          16.1600   70.7867   -6.4991 C.3     1  UNL1        0.1694
     33 C          17.2966   70.9193   -5.4824 C.3     1  UNL1        0.1761
     34 O          18.4676   71.2714   -9.4155 O.3     1  UNL1       -0.3775
     35 O          15.6345   71.1035   -8.8432 O.3     1  UNL1       -0.3794
     36 O          15.8090   69.4109   -6.6539 O.3     1  UNL1       -0.3794
     37 O          18.4258   70.1657   -5.9217 O.3     1  UNL1       -0.3258
     38 H          19.2921   70.8103   -9.6215 H       1  UNL1        0.2106
     39 H          15.9748   71.4633   -9.6721 H       1  UNL1        0.2105
     40 H          15.0963   69.3755   -7.3051 H       1  UNL1        0.2105
     41 C          16.8287   70.3896   -4.1250 C.3     1  UNL1        0.1693
     42 O          16.8984   68.9627   -4.1218 O.3     1  UNL1       -0.3794
     43 H          16.5967   68.6697   -3.2510 H       1  UNL1        0.2105
@<TRIPOS>BOND
     1    15    16   ar
     2    15    20   ar
     3    15     6    1
     4    16    17   ar
     5    16    21    2
     6    17    18   ar
     7    17    23    1
     8    18    19   ar
     9    18    22    2
    10    19    20   ar
    11     6     7    1
    12     6    11    1
    13     7     8    1
    14     7     9    1
    15     8    13    1
    16     9    10    1
    17     9    12    1
    18    10    11    1
    19    10     5    1
    20    12    14    1
    21     5     4    1
    22     4     1    1
    23     1     2    2
    24     1     3    1
    25     1    24    1
    26    24    25    1
    27    25    26    2
    28    25    27    1
    29    25    28    1
    30    28    29    1
    31    29    30    1
    32    29    37    1
    33    30    31    1
    34    30    34    1
    35    31    32    1
    36    31    35    1
    37    32    33    1
    38    32    36    1
    39    33    41    1
    40    33    37    1
    41    41    42    1
    42    34    38    1
    43    35    39    1
    44    36    40    1
    45    42    43    1
@<TRIPOS>MOLECULE
GDU
 43 45 0 0 0
SMALL
GASTEIGER

@<TRIPOS>ATOM
      1 P          16.4486   69.7045   -3.3653 P.3     1  UNL1        0.2189
      2 O          16.1103   68.8113   -4.4955 O.2     1  UNL1       -0.5170
      3 O          15.5830   71.0580   -3.4734 O.3     1  UNL1       -0.4371
      4 O          16.1152   68.9638   -1.9771 O.3     1  UNL1       -0.3112
      5 C          15.3005   69.8573   -1.2166 C.3     1  UNL1        0.1811
      6 C          12.7135   68.1068    0.5639 C.3     1  UNL1        0.2383
      7 C          12.4597   69.6029    0.8804 C.3     1  UNL1        0.1895
      8 O          11.0673   69.8515    1.0865 O.3     1  UNL1       -0.3779
      9 C          12.9602   70.2979   -0.4125 C.3     1  UNL1        0.1713
     10 C          13.9010   69.2614   -1.0545 C.3     1  UNL1        0.1764
     11 O          13.9530   68.1244   -0.1755 O.3     1  UNL1       -0.3308
     12 O          11.8625   70.5914   -1.2790 O.3     1  UNL1       -0.3794
     13 H          10.9779   70.7954    1.2785 H       1  UNL1        0.2106
     14 H          11.2811   71.1969   -0.7992 H       1  UNL1        0.2105
     15 N          12.8601   67.3338    1.7983 N.ar    1  UNL1       -0.2551
     16 C          12.3774   66.0803    1.8616 C.ar    1  UNL1        0.3323
     17 N          12.5022   65.3470    2.9834 N.ar    1  UNL1       -0.2743
     18 C          13.1076   65.8640    4.0699 C.ar    1  UNL1        0.2626
     19 C          13.6158   67.1852    4.0197 C.ar    1  UNL1        0.0795
     20 C          13.4809   67.8971    2.8806 C.ar    1  UNL1        0.0869
     21 O          11.8292   65.6003    0.8894 O.2     1  UNL1       -0.2464
     22 O          13.2168   65.2027    5.0873 O.2     1  UNL1       -0.2670
     23 H          12.1517   64.4425    3.0099 H       1  UNL1        0.1734
     24 O          18.0166   70.0661   -3.4191 O.3     1  UNL1       -0.2703
     25 P          18.2500   70.9332   -4.7546 P.3     1  UNL1        0.2208
     26 O          17.7258   70.1909   -5.9223 O.2     1  UNL1       -0.5170
     27 O          17.4770   72.3401   -4.6227 O.3     1  UNL1       -0.4371
     28 O          19.8241   71.2036   -4.9519 O.3     1  UNL1       -0.2858
     29 C          19.9776   72.6027   -5.1945 C.3     1  UNL1        0.2704
     30 C          20.2223   72.8370   -6.6860 C.3     1  UNL1        0.1967
     31 C          21.4802   72.0732   -7.1109 C.3     1  UNL1        0.1715
     32 C          22.6352   72.4797   -6.1887 C.3     1  UNL1        0.1694
     33 C          22.2078   72.2703   -4.7339 C.3     1  UNL1        0.1761
     34 O          19.0997   72.3676   -7.4347 O.3     1  UNL1       -0.3775
     35 O          21.8055   72.3989   -8.4639 O.3     1  UNL1       -0.3794
     36 O          22.9576   73.8543   -6.4040 O.3     1  UNL1       -0.3794
     37 O          21.0819   73.0958   -4.4395 O.3     1  UNL1       -0.3258
     38 H          18.3315   72.8695   -7.1300 H       1  UNL1        0.2106
     39 H          21.0491   72.1380   -9.0042 H       1  UNL1        0.2105
     40 H          23.2145   73.9396   -7.3314 H       1  UNL1        0.2105
     41 C          23.3665   72.6409   -3.8054 C.3     1  UNL1        0.1693
     42 O          24.1558   71.4793   -3.5431 O.3     1  UNL1       -0.3794
     43 H          24.8737   71.7552   -2.9567 H       1  UNL1        0.2105
@<TRIPOS>BOND
     1    15    16   ar
     2    15    20   ar
     3    15     6    1
     4    16    17   ar
     5    16    21    2
     6    17    18   ar
     7    17    23    1
     8    18    19   ar
     9    18    22    2
    10    19    20   ar
    11     6     7    1
    12     6    11    1
    13     7     8    1
    14     7     9    1
    15     8    13    1
    16     9    10    1
    17     9    12    1
    18    10    11    1
    19    10     5    1
    20    12    14    1
    21     5     4    1
    22     4     1    1
    23     1     2    2
    24     1     3    1
    25     1    24    1
    26    24    25    1
    27    25    26    2
    28    25    27    1
    29    25    28    1
    30    28    29    1
    31    29    30    1
    32    29    37    1
    33    30    31    1
    34    30    34    1
    35    31    32    1
    36    31    35    1
    37    32    33    1
    38    32    36    1
    39    33    41    1
    40    33    37    1
    41    41    42    1
    42    34    38    1
    43    35    39    1
    44    36    40    1
    45    42    43    1
