@<TRIPOS>MOLECULE
UD1
 46 48 0 0 0
SMALL
GASTEIGER

@<TRIPOS>ATOM
      1 P          20.8704   71.3372   -2.9268 P.3     1  UNL1        0.2189
      2 O          20.8579   72.1582   -4.1575 O.2     1  UNL1       -0.5170
      3 O          22.2287   70.4743   -2.8711 O.3     1  UNL1       -0.4371
      4 O          19.6039   70.3428   -2.9328 O.3     1  UNL1       -0.3112
      5 C          18.5017   71.0731   -2.3923 C.3     1  UNL1        0.1811
      6 C          16.9380   70.6116   -5.5968 C.3     1  UNL1        0.2383
      7 C          16.9837   69.1915   -4.9791 C.3     1  UNL1        0.1895
      8 O          15.8818   68.4026   -5.4292 O.3     1  UNL1       -0.3779
      9 C          16.8658   69.4924   -3.4622 C.3     1  UNL1        0.1713
     10 C          17.3041   70.9643   -3.3373 C.3     1  UNL1        0.1764
     11 O          17.6754   71.4150   -4.6512 O.3     1  UNL1       -0.3308
     12 O          15.5159   69.3265   -3.0227 O.3     1  UNL1       -0.3794
     13 H          15.9689   67.5350   -5.0107 H       1  UNL1        0.2106
     14 H          15.2820   68.4023   -3.1816 H       1  UNL1        0.2105
     15 N          17.5890   70.6291   -6.9073 N.ar    1  UNL1       -0.2551
     16 C          16.8504   70.4772   -8.0203 C.ar    1  UNL1        0.3323
     17 N          17.4219   70.4931   -9.2390 N.ar    1  UNL1       -0.2743
     18 C          18.7550   70.6536   -9.3623 C.ar    1  UNL1        0.2626
     19 C          19.5452   70.8086   -8.1985 C.ar    1  UNL1        0.0795
     20 C          18.9454   70.7942   -6.9888 C.ar    1  UNL1        0.0869
     21 O          15.6469   70.3315   -7.9254 O.2     1  UNL1       -0.2464
     22 O          19.2734   70.6634  -10.4634 O.2     1  UNL1       -0.2670
     23 H          16.8733   70.3868  -10.0314 H       1  UNL1        0.1734
     24 O          20.7912   72.2989   -1.6392 O.3     1  UNL1       -0.2703
     25 P          21.6881   71.6144   -0.4919 P.3     1  UNL1        0.2208
     26 O          22.9613   71.1408   -1.0780 O.2     1  UNL1       -0.5170
     27 O          20.8916   70.3657    0.1394 O.3     1  UNL1       -0.4371
     28 O          21.9972   72.6914    0.6635 O.3     1  UNL1       -0.2865
     29 C          21.7614   72.0388    1.9124 C.3     1  UNL1        0.2611
     30 C          21.4743   73.0905    2.9855 C.3     1  UNL1        0.1582
     31 C          22.6726   74.0407    3.0893 C.3     1  UNL1        0.1625
     32 C          23.9397   73.2088    3.3140 C.3     1  UNL1        0.1686
     33 C          24.0424   72.1500    2.2141 C.3     1  UNL1        0.1760
     34 O          22.4814   74.9342    4.1876 O.3     1  UNL1       -0.3801
     35 O          25.0856   74.0611    3.2672 O.3     1  UNL1       -0.3794
     36 O          22.9128   71.2801    2.2754 O.3     1  UNL1       -0.3263
     37 H          23.2562   75.5124    4.2156 H       1  UNL1        0.2105
     38 H          25.8592   73.4981    3.4122 H       1  UNL1        0.2105
     39 C          19.4270   74.2711    3.5760 C.2     1  UNL1        0.2231
     40 C          18.1939   75.0520    3.1988 C.3     1  UNL1        0.0946
     41 N          20.2766   73.8495    2.6197 N.am    1  UNL1       -0.2994
     42 O          19.6540   74.0217    4.7406 O.2     1  UNL1       -0.2751
     43 H          20.0950   74.0487    1.6875 H       1  UNL1        0.1496
     44 C          25.3220   71.3345    2.4108 C.3     1  UNL1        0.1693
     45 O          24.9823   69.9777    2.7041 O.3     1  UNL1       -0.3794
     46 H          25.8145   69.4999    2.8208 H       1  UNL1        0.2105
@<TRIPOS>BOND
     1    29    30    1
     2    29    28    1
     3    29    36    1
     4    30    31    1
     5    30    41    1
     6    31    32    1
     7    31    34    1
     8    32    33    1
     9    32    35    1
    10    33    44    1
    11    33    36    1
    12    44    45    1
    13    39    40    1
    14    39    41   am
    15    39    42    2
    16    41    43    1
    17    28    25    1
    18    34    37    1
    19    35    38    1
    20    45    46    1
    21    15    16   ar
    22    15    20   ar
    23    15     6    1
    24    16    17   ar
    25    16    21    2
    26    17    18   ar
    27    17    23    1
    28    18    19   ar
    29    18    22    2
    30    19    20   ar
    31     6     7    1
    32     6    11    1
    33     7     8    1
    34     7     9    1
    35     8    13    1
    36     9    10    1
    37     9    12    1
    38    10    11    1
    39    10     5    1
    40    12    14    1
    41     5     4    1
    42     4     1    1
    43     1     2    2
    44     1     3    1
    45     1    24    1
    46    24    25    1
    47    25    26    2
    48    25    27    1
@<TRIPOS>MOLECULE
UD1
 46 48 0 0 0
SMALL
GASTEIGER

@<TRIPOS>ATOM
      1 P          20.5774   71.4121   -2.0945 P.3     1  UNL1        0.2189
      2 O          20.8269   72.8704   -2.0973 O.2     1  UNL1       -0.5170
      3 O          21.9322   70.6351   -2.4860 O.3     1  UNL1       -0.4371
      4 O          19.4299   71.0625   -3.1686 O.3     1  UNL1       -0.3112
      5 C          18.1819   71.1271   -2.4768 C.3     1  UNL1        0.1811
      6 C          16.7899   70.5465   -5.7406 C.3     1  UNL1        0.2383
      7 C          16.8571   69.1413   -5.0917 C.3     1  UNL1        0.1895
      8 O          15.8070   68.3037   -5.5763 O.3     1  UNL1       -0.3779
      9 C          16.6565   69.4668   -3.5887 C.3     1  UNL1        0.1713
     10 C          17.0352   70.9560   -3.4743 C.3     1  UNL1        0.1764
     11 O          17.4522   71.3947   -4.7785 O.3     1  UNL1       -0.3308
     12 O          15.2941   69.2598   -3.2095 O.3     1  UNL1       -0.3794
     13 H          15.9053   67.4482   -5.1361 H       1  UNL1        0.2106
     14 H          15.1014   68.3247   -3.3597 H       1  UNL1        0.2105
     15 N          17.5014   70.5628   -7.0192 N.ar    1  UNL1       -0.2551
     16 C          16.8051   70.5875   -8.1689 C.ar    1  UNL1        0.3323
     17 N          17.4333   70.6069   -9.3594 N.ar    1  UNL1       -0.2743
     18 C          18.7803   70.5924   -9.4173 C.ar    1  UNL1        0.2626
     19 C          19.5256   70.5604   -8.2146 C.ar    1  UNL1        0.0795
     20 C          18.8701   70.5469   -7.0342 C.ar    1  UNL1        0.0869
     21 O          15.5898   70.6010   -8.1332 O.2     1  UNL1       -0.2464
     22 O          19.3492   70.6051  -10.4932 O.2     1  UNL1       -0.2670
     23 H          16.9152   70.6295  -10.1788 H       1  UNL1        0.1734
     24 O          20.0984   70.9524   -0.6289 O.3     1  UNL1       -0.2703
     25 P          21.3146   71.2654    0.3772 P.3     1  UNL1        0.2208
     26 O          22.3529   72.0451   -0.3319 O.2     1  UNL1       -0.5170
     27 O          21.9483   69.8811    0.9012 O.3     1  UNL1       -0.4371
     28 O          20.7701   72.1136    1.6320 O.3     1  UNL1       -0.2865
     29 C          21.4724   73.3577    1.6275 C.3     1  UNL1        0.2611
     30 C          22.5308   73.3442    2.7318 C.3     1  UNL1        0.1582
     31 C          21.8430   73.1161    4.0825 C.3     1  UNL1        0.1625
     32 C          20.7369   74.1629    4.2522 C.3     1  UNL1        0.1686
     33 C          19.8119   74.1125    3.0344 C.3     1  UNL1        0.1760
     34 O          22.7993   73.2500    5.1356 O.3     1  UNL1       -0.3801
     35 O          19.9876   73.8789    5.4353 O.3     1  UNL1       -0.3794
     36 O          20.5516   74.4226    1.8540 O.3     1  UNL1       -0.3263
     37 H          22.3250   73.0988    5.9647 H       1  UNL1        0.2105
     38 H          19.3032   74.5598    5.5031 H       1  UNL1        0.2105
     39 C          24.8064   72.4783    2.6526 C.2     1  UNL1        0.2231
     40 C          25.7911   71.3670    2.3929 C.3     1  UNL1        0.0946
     41 N          23.4878   72.2647    2.4801 N.am    1  UNL1       -0.2994
     42 O          25.2013   73.5655    3.0165 O.2     1  UNL1       -0.2751
     43 H          23.1715   71.3949    2.1887 H       1  UNL1        0.1496
     44 C          18.6846   75.1322    3.2092 C.3     1  UNL1        0.1693
     45 O          18.9499   76.2795    2.3996 O.3     1  UNL1       -0.3794
     46 H          18.2180   76.8956    2.5390 H       1  UNL1        0.2105
@<TRIPOS>BOND
     1    29    30    1
     2    29    28    1
     3    29    36    1
     4    30    31    1
     5    30    41    1
     6    31    32    1
     7    31    34    1
     8    32    33    1
     9    32    35    1
    10    33    44    1
    11    33    36    1
    12    44    45    1
    13    39    40    1
    14    39    41   am
    15    39    42    2
    16    41    43    1
    17    28    25    1
    18    34    37    1
    19    35    38    1
    20    45    46    1
    21    15    16   ar
    22    15    20   ar
    23    15     6    1
    24    16    17   ar
    25    16    21    2
    26    17    18   ar
    27    17    23    1
    28    18    19   ar
    29    18    22    2
    30    19    20   ar
    31     6     7    1
    32     6    11    1
    33     7     8    1
    34     7     9    1
    35     8    13    1
    36     9    10    1
    37     9    12    1
    38    10    11    1
    39    10     5    1
    40    12    14    1
    41     5     4    1
    42     4     1    1
    43     1     2    2
    44     1     3    1
    45     1    24    1
    46    24    25    1
    47    25    26    2
    48    25    27    1
@<TRIPOS>MOLECULE
UD1
 46 48 0 0 0
SMALL
GASTEIGER

@<TRIPOS>ATOM
      1 P          20.6890   71.1842   -2.1752 P.3     1  UNL1        0.2189
      2 O          20.5397   72.6520   -2.2839 O.2     1  UNL1       -0.5170
      3 O          22.1706   70.7594   -2.6410 O.3     1  UNL1       -0.4371
      4 O          19.6029   70.4634   -3.1206 O.3     1  UNL1       -0.3112
      5 C          18.3646   70.4708   -2.4087 C.3     1  UNL1        0.1811
      6 C          16.9052   70.4689   -5.6946 C.3     1  UNL1        0.2383
      7 C          16.7728   69.0033   -5.2102 C.3     1  UNL1        0.1895
      8 O          15.6148   68.3827   -5.7698 O.3     1  UNL1       -0.3779
      9 C          16.6199   69.1796   -3.6770 C.3     1  UNL1        0.1713
     10 C          17.2055   70.5779   -3.4007 C.3     1  UNL1        0.1764
     11 O          17.6807   71.0999   -4.6534 O.3     1  UNL1       -0.3308
     12 O          15.2419   69.1242   -3.3020 O.3     1  UNL1       -0.3794
     13 H          15.5910   67.4771   -5.4309 H       1  UNL1        0.2106
     14 H          14.9188   68.2488   -3.5541 H       1  UNL1        0.2105
     15 N          17.6122   70.5312   -6.9743 N.ar    1  UNL1       -0.2551
     16 C          16.9134   70.5208   -8.1228 C.ar    1  UNL1        0.3323
     17 N          17.5371   70.5810   -9.3143 N.ar    1  UNL1       -0.2743
     18 C          18.8826   70.6438   -9.3745 C.ar    1  UNL1        0.2626
     19 C          19.6309   70.6495   -8.1732 C.ar    1  UNL1        0.0795
     20 C          18.9795   70.5936   -6.9917 C.ar    1  UNL1        0.0869
     21 O          15.6993   70.4645   -8.0849 O.2     1  UNL1       -0.2464
     22 O          19.4478   70.6935  -10.4512 O.2     1  UNL1       -0.2670
     23 H          17.0170   70.5773  -10.1326 H       1  UNL1        0.1734
     24 O          20.4552   70.7325   -0.6487 O.3     1  UNL1       -0.2703
     25 P          21.6290   71.4074    0.2208 P.3     1  UNL1        0.2208
     26 O          22.8180   70.5269    0.2118 O.2     1  UNL1       -0.5170
     27 O          21.1254   71.6123    1.7362 O.3     1  UNL1       -0.4371
     28 O          22.0144   72.8359   -0.4128 O.3     1  UNL1       -0.2865
     29 C          23.4108   73.0291   -0.1807 C.3     1  UNL1        0.2611
     30 C          23.6205   74.3442    0.5720 C.3     1  UNL1        0.1582
     31 C          23.0460   75.4955   -0.2610 C.3     1  UNL1        0.1625
     32 C          23.6623   75.4413   -1.6629 C.3     1  UNL1        0.1686
     33 C          23.4468   74.0441   -2.2483 C.3     1  UNL1        0.1760
     34 O          23.3674   76.7420    0.3590 O.3     1  UNL1       -0.3801
     35 O          23.0331   76.4138   -2.4996 O.3     1  UNL1       -0.3794
     36 O          24.0973   73.0728   -1.4298 O.3     1  UNL1       -0.3263
     37 H          22.9876   77.4366   -0.1966 H       1  UNL1        0.2105
     38 H          23.4496   76.3450   -3.3704 H       1  UNL1        0.2105
     39 C          23.6206   73.9629    2.9780 C.2     1  UNL1        0.2231
     40 C          22.9138   73.9003    4.3080 C.3     1  UNL1        0.0946
     41 N          22.9344   74.2837    1.8643 N.am    1  UNL1       -0.2994
     42 O          24.8074   73.7237    2.9103 O.2     1  UNL1       -0.2751
     43 H          21.9846   74.4750    1.9182 H       1  UNL1        0.1496
     44 C          24.0303   73.9890   -3.6617 C.3     1  UNL1        0.1693
     45 O          24.3431   72.6353   -3.9960 O.3     1  UNL1       -0.3794
     46 H          24.7073   72.6452   -4.8914 H       1  UNL1        0.2105
@<TRIPOS>BOND
     1    29    30    1
     2    29    28    1
     3    29    36    1
     4    30    31    1
     5    30    41    1
     6    31    32    1
     7    31    34    1
     8    32    33    1
     9    32    35    1
    10    33    44    1
    11    33    36    1
    12    44    45    1
    13    39    40    1
    14    39    41   am
    15    39    42    2
    16    41    43    1
    17    28    25    1
    18    34    37    1
    19    35    38    1
    20    45    46    1
    21    15    16   ar
    22    15    20   ar
    23    15     6    1
    24    16    17   ar
    25    16    21    2
    26    17    18   ar
    27    17    23    1
    28    18    19   ar
    29    18    22    2
    30    19    20   ar
    31     6     7    1
    32     6    11    1
    33     7     8    1
    34     7     9    1
    35     8    13    1
    36     9    10    1
    37     9    12    1
    38    10    11    1
    39    10     5    1
    40    12    14    1
    41     5     4    1
    42     4     1    1
    43     1     2    2
    44     1     3    1
    45     1    24    1
    46    24    25    1
    47    25    26    2
    48    25    27    1
@<TRIPOS>MOLECULE
UD1
 46 48 0 0 0
SMALL
GASTEIGER

@<TRIPOS>ATOM
      1 P          20.7015   71.2826   -3.1093 P.3     1  UNL1        0.2189
      2 O          20.2086   72.6586   -2.8803 O.2     1  UNL1       -0.5170
      3 O          21.3176   71.1731   -4.5929 O.3     1  UNL1       -0.4371
      4 O          19.4806   70.2437   -2.9583 O.3     1  UNL1       -0.3112
      5 C          18.3719   70.9804   -2.4401 C.3     1  UNL1        0.1811
      6 C          16.8897   70.5684   -5.6898 C.3     1  UNL1        0.2383
      7 C          16.9056   69.1415   -5.0866 C.3     1  UNL1        0.1895
      8 O          15.8086   68.3681   -5.5744 O.3     1  UNL1       -0.3779
      9 C          16.7502   69.4272   -3.5702 C.3     1  UNL1        0.1713
     10 C          17.1989   70.8934   -3.4176 C.3     1  UNL1        0.1764
     11 O          17.6093   71.3545   -4.7162 O.3     1  UNL1       -0.3308
     12 O          15.3876   69.2698   -3.1685 O.3     1  UNL1       -0.3794
     13 H          15.8765   67.4953   -5.1633 H       1  UNL1        0.2106
     14 H          15.1494   68.3496   -3.3436 H       1  UNL1        0.2105
     15 N          17.5754   70.5937   -6.9823 N.ar    1  UNL1       -0.2551
     16 C          16.8611   70.5018   -8.1174 C.ar    1  UNL1        0.3323
     17 N          17.4650   70.5263   -9.3203 N.ar    1  UNL1       -0.2743
     18 C          18.8063   70.6349   -9.4052 C.ar    1  UNL1        0.2626
     19 C          19.5710   70.7264   -8.2178 C.ar    1  UNL1        0.0795
     20 C          18.9391   70.7048   -7.0247 C.ar    1  UNL1        0.0869
     21 O          15.6506   70.4034   -8.0573 O.2     1  UNL1       -0.2464
     22 O          19.3537   70.6523  -10.4921 O.2     1  UNL1       -0.2670
     23 H          16.9337   70.4637  -10.1290 H       1  UNL1        0.1734
     24 O          21.8400   70.9334   -2.0273 O.3     1  UNL1       -0.2703
     25 P          23.1489   71.7722   -2.4425 P.3     1  UNL1        0.2208
     26 O          22.7658   72.8538   -3.3764 O.2     1  UNL1       -0.5170
     27 O          24.2082   70.7948   -3.1601 O.3     1  UNL1       -0.4371
     28 O          23.8179   72.4120   -1.1258 O.3     1  UNL1       -0.2865
     29 C          22.7856   72.5118   -0.1432 C.3     1  UNL1        0.2611
     30 C          22.7045   73.9542    0.3595 C.3     1  UNL1        0.1582
     31 C          24.0591   74.3544    0.9551 C.3     1  UNL1        0.1625
     32 C          24.4557   73.3172    2.0111 C.3     1  UNL1        0.1686
     33 C          24.4076   71.9229    1.3828 C.3     1  UNL1        0.1760
     34 O          23.9534   75.6438    1.5615 O.3     1  UNL1       -0.3801
     35 O          25.7799   73.5890    2.4740 O.3     1  UNL1       -0.3794
     36 O          23.0801   71.6373    0.9440 O.3     1  UNL1       -0.3263
     37 H          24.8256   75.8553    1.9219 H       1  UNL1        0.2105
     38 H          25.9892   72.9138    3.1350 H       1  UNL1        0.2105
     39 C          23.3586   75.4930   -1.4121 C.2     1  UNL1        0.2231
     40 C          23.0210   76.4094   -2.5604 C.3     1  UNL1        0.0946
     41 N          22.3771   74.8442   -0.7564 N.am    1  UNL1       -0.2994
     42 O          24.5141   75.3401   -1.0780 O.2     1  UNL1       -0.2751
     43 H          21.4523   74.9666   -1.0235 H       1  UNL1        0.1496
     44 C          24.8337   70.8823    2.4205 C.3     1  UNL1        0.1693
     45 O          26.2563   70.7478    2.4045 O.3     1  UNL1       -0.3794
     46 H          26.4821   70.0845    3.0706 H       1  UNL1        0.2105
@<TRIPOS>BOND
     1    29    30    1
     2    29    28    1
     3    29    36    1
     4    30    31    1
     5    30    41    1
     6    31    32    1
     7    31    34    1
     8    32    33    1
     9    32    35    1
    10    33    44    1
    11    33    36    1
    12    44    45    1
    13    39    40    1
    14    39    41   am
    15    39    42    2
    16    41    43    1
    17    28    25    1
    18    34    37    1
    19    35    38    1
    20    45    46    1
    21    15    16   ar
    22    15    20   ar
    23    15     6    1
    24    16    17   ar
    25    16    21    2
    26    17    18   ar
    27    17    23    1
    28    18    19   ar
    29    18    22    2
    30    19    20   ar
    31     6     7    1
    32     6    11    1
    33     7     8    1
    34     7     9    1
    35     8    13    1
    36     9    10    1
    37     9    12    1
    38    10    11    1
    39    10     5    1
    40    12    14    1
    41     5     4    1
    42     4     1    1
    43     1     2    2
    44     1     3    1
    45     1    24    1
    46    24    25    1
    47    25    26    2
    48    25    27    1
@<TRIPOS>MOLECULE
UD1
 46 48 0 0 0
SMALL
GASTEIGER

@<TRIPOS>ATOM
      1 P          16.3708   69.6920   -2.7466 P.3     1  UNL1        0.2189
      2 O          16.0195   69.1634   -4.0829 O.2     1  UNL1       -0.5170
      3 O          17.1501   68.5590   -1.9091 O.3     1  UNL1       -0.4371
      4 O          15.0262   70.1070   -1.9638 O.3     1  UNL1       -0.3112
      5 C          14.8669   69.1758   -0.8924 C.3     1  UNL1        0.1811
      6 C          12.0972   68.0777    1.1202 C.3     1  UNL1        0.2383
      7 C          12.4204   69.4984    1.6467 C.3     1  UNL1        0.1895
      8 O          11.2427   70.1439    2.1319 O.3     1  UNL1       -0.3779
      9 C          12.9534   70.2043    0.3728 C.3     1  UNL1        0.1713
     10 C          13.3830   69.0443   -0.5461 C.3     1  UNL1        0.1764
     11 O          13.1552   67.8200    0.1726 O.3     1  UNL1       -0.3308
     12 O          11.9202   70.9795   -0.2391 O.3     1  UNL1       -0.3794
     13 H          11.5112   71.0192    2.4439 H       1  UNL1        0.2106
     14 H          11.6538   71.6483    0.4058 H       1  UNL1        0.2105
     15 N          12.1301   67.1004    2.2089 N.ar    1  UNL1       -0.2551
     16 C          13.3111   66.6320    2.6484 C.ar    1  UNL1        0.3323
     17 N          13.3716   65.7355    3.6509 N.ar    1  UNL1       -0.2743
     18 C          12.2396   65.2836    4.2274 C.ar    1  UNL1        0.2626
     19 C          10.9893   65.7638    3.7705 C.ar    1  UNL1        0.0795
     20 C          10.9578   66.6668    2.7670 C.ar    1  UNL1        0.0869
     21 O          14.3408   67.0301    2.1385 O.2     1  UNL1       -0.2464
     22 O          12.2929   64.4695    5.1306 O.2     1  UNL1       -0.2670
     23 H          14.2323   65.4120    3.9584 H       1  UNL1        0.1734
     24 O          17.3156   70.9838   -2.9118 O.3     1  UNL1       -0.2703
     25 P          18.8117   70.4388   -3.1442 P.3     1  UNL1        0.2208
     26 O          18.7571   69.0559   -3.6672 O.2     1  UNL1       -0.5170
     27 O          19.6116   70.4520   -1.7469 O.3     1  UNL1       -0.4371
     28 O          19.5699   71.3837   -4.2038 O.3     1  UNL1       -0.2865
     29 C          20.7030   70.6520   -4.6750 C.3     1  UNL1        0.2611
     30 C          21.9584   71.5130   -4.5243 C.3     1  UNL1        0.1582
     31 C          21.7780   72.8069   -5.3262 C.3     1  UNL1        0.1625
     32 C          21.4065   72.4425   -6.7675 C.3     1  UNL1        0.1686
     33 C          20.1906   71.5136   -6.7491 C.3     1  UNL1        0.1760
     34 O          22.9980   73.5505   -5.3162 O.3     1  UNL1       -0.3801
     35 O          21.0906   73.6311   -7.4947 O.3     1  UNL1       -0.3794
     36 O          20.5114   70.3134   -6.0469 O.3     1  UNL1       -0.3263
     37 H          22.8397   74.3541   -5.8304 H       1  UNL1        0.2105
     38 H          20.8623   73.3565   -8.3941 H       1  UNL1        0.2105
     39 C          23.2988   71.4600   -2.4909 C.2     1  UNL1        0.2231
     40 C          23.5096   71.7927   -1.0359 C.3     1  UNL1        0.0946
     41 N          22.1639   71.8365   -3.1110 N.am    1  UNL1       -0.2994
     42 O          24.1508   70.8525   -3.1036 O.2     1  UNL1       -0.2751
     43 H          21.4818   72.3224   -2.6209 H       1  UNL1        0.1496
     44 C          19.7913   71.1697   -8.1855 C.3     1  UNL1        0.1693
     45 O          18.5742   71.8417   -8.5159 O.3     1  UNL1       -0.3794
     46 H          18.3585   71.5984   -9.4264 H       1  UNL1        0.2105
@<TRIPOS>BOND
     1    29    30    1
     2    29    28    1
     3    29    36    1
     4    30    31    1
     5    30    41    1
     6    31    32    1
     7    31    34    1
     8    32    33    1
     9    32    35    1
    10    33    44    1
    11    33    36    1
    12    44    45    1
    13    39    40    1
    14    39    41   am
    15    39    42    2
    16    41    43    1
    17    28    25    1
    18    34    37    1
    19    35    38    1
    20    45    46    1
    21    15    16   ar
    22    15    20   ar
    23    15     6    1
    24    16    17   ar
    25    16    21    2
    26    17    18   ar
    27    17    23    1
    28    18    19   ar
    29    18    22    2
    30    19    20   ar
    31     6     7    1
    32     6    11    1
    33     7     8    1
    34     7     9    1
    35     8    13    1
    36     9    10    1
    37     9    12    1
    38    10    11    1
    39    10     5    1
    40    12    14    1
    41     5     4    1
    42     4     1    1
    43     1     2    2
    44     1     3    1
    45     1    24    1
    46    24    25    1
    47    25    26    2
    48    25    27    1
@<TRIPOS>MOLECULE
UD1
 46 48 0 0 0
SMALL
GASTEIGER

@<TRIPOS>ATOM
      1 P          20.7267   71.9556   -2.1345 P.3     1  UNL1        0.2189
      2 O          20.7107   72.8811   -3.2887 O.2     1  UNL1       -0.5170
      3 O          21.5709   70.6382   -2.5146 O.3     1  UNL1       -0.4371
      4 O          19.2172   71.5359   -1.7629 O.3     1  UNL1       -0.3112
      5 C          18.9415   70.3211   -2.4619 C.3     1  UNL1        0.1811
      6 C          17.1701   70.4408   -5.5884 C.3     1  UNL1        0.2383
      7 C          17.0036   68.9788   -5.1037 C.3     1  UNL1        0.1895
      8 O          15.7634   68.4301   -5.5510 O.3     1  UNL1       -0.3779
      9 C          17.0114   69.1441   -3.5617 C.3     1  UNL1        0.1713
     10 C          17.6988   70.5044   -3.3345 C.3     1  UNL1        0.1764
     11 O          18.0779   71.0149   -4.6240 O.3     1  UNL1       -0.3308
     12 O          15.6757   69.1602   -3.0534 O.3     1  UNL1       -0.3794
     13 H          15.7220   67.5230   -5.2178 H       1  UNL1        0.2106
     14 H          15.2809   68.3073   -3.2787 H       1  UNL1        0.2105
     15 N          17.7511   70.4798   -6.9310 N.ar    1  UNL1       -0.2551
     16 C          16.9455   70.4459   -8.0068 C.ar    1  UNL1        0.3323
     17 N          17.4520   70.4845   -9.2534 N.ar    1  UNL1       -0.2743
     18 C          18.7853   70.5489   -9.4435 C.ar    1  UNL1        0.2626
     19 C          19.6452   70.5792   -8.3198 C.ar    1  UNL1        0.0795
     20 C          19.1102   70.5447   -7.0805 C.ar    1  UNL1        0.0869
     21 O          15.7409   70.3879   -7.8516 O.2     1  UNL1       -0.2464
     22 O          19.2445   70.5789  -10.5702 O.2     1  UNL1       -0.2670
     23 H          16.8559   70.4640  -10.0179 H       1  UNL1        0.1734
     24 O          21.4071   72.6844   -0.8717 O.3     1  UNL1       -0.2703
     25 P          22.2085   71.5513   -0.0572 P.3     1  UNL1        0.2208
     26 O          23.2202   70.9313   -0.9409 O.2     1  UNL1       -0.5170
     27 O          21.1773   70.4238    0.4504 O.3     1  UNL1       -0.4371
     28 O          22.9406   72.2174    1.2119 O.3     1  UNL1       -0.2865
     29 C          22.4817   73.5679    1.2935 C.3     1  UNL1        0.2611
     30 C          23.6522   74.5160    1.0272 C.3     1  UNL1        0.1582
     31 C          24.7535   74.2554    2.0610 C.3     1  UNL1        0.1625
     32 C          24.1425   74.3515    3.4630 C.3     1  UNL1        0.1686
     33 C          22.9366   73.4133    3.5464 C.3     1  UNL1        0.1760
     34 O          25.7862   75.2323    1.9171 O.3     1  UNL1       -0.3801
     35 O          25.1161   73.9684    4.4360 O.3     1  UNL1       -0.3794
     36 O          21.9503   73.8100    2.5944 O.3     1  UNL1       -0.3263
     37 H          26.4563   75.0308    2.5847 H       1  UNL1        0.2105
     38 H          24.6904   74.0425    5.3019 H       1  UNL1        0.2105
     39 C          24.2052   75.2828   -1.2179 C.2     1  UNL1        0.2231
     40 C          24.7454   75.0392   -2.6039 C.3     1  UNL1        0.0946
     41 N          24.1774   74.2799   -0.3192 N.am    1  UNL1       -0.2994
     42 O          23.7947   76.3819   -0.9117 O.2     1  UNL1       -0.2751
     43 H          24.5055   73.4002   -0.5640 H       1  UNL1        0.1496
     44 C          22.3384   73.4776    4.9533 C.3     1  UNL1        0.1693
     45 O          20.9285   73.6919    4.8625 O.3     1  UNL1       -0.3794
     46 H          20.5918   73.7263    5.7681 H       1  UNL1        0.2105
@<TRIPOS>BOND
     1    29    30    1
     2    29    28    1
     3    29    36    1
     4    30    31    1
     5    30    41    1
     6    31    32    1
     7    31    34    1
     8    32    33    1
     9    32    35    1
    10    33    44    1
    11    33    36    1
    12    44    45    1
    13    39    40    1
    14    39    41   am
    15    39    42    2
    16    41    43    1
    17    28    25    1
    18    34    37    1
    19    35    38    1
    20    45    46    1
    21    15    16   ar
    22    15    20   ar
    23    15     6    1
    24    16    17   ar
    25    16    21    2
    26    17    18   ar
    27    17    23    1
    28    18    19   ar
    29    18    22    2
    30    19    20   ar
    31     6     7    1
    32     6    11    1
    33     7     8    1
    34     7     9    1
    35     8    13    1
    36     9    10    1
    37     9    12    1
    38    10    11    1
    39    10     5    1
    40    12    14    1
    41     5     4    1
    42     4     1    1
    43     1     2    2
    44     1     3    1
    45     1    24    1
    46    24    25    1
    47    25    26    2
    48    25    27    1
@<TRIPOS>MOLECULE
UD1
 46 48 0 0 0
SMALL
GASTEIGER

@<TRIPOS>ATOM
      1 P          20.9331   71.6500   -2.8830 P.3     1  UNL1        0.2189
      2 O          21.7804   72.8375   -2.6371 O.2     1  UNL1       -0.5170
      3 O          21.1628   71.1294   -4.3893 O.3     1  UNL1       -0.4371
      4 O          19.3850   72.0453   -2.6831 O.3     1  UNL1       -0.3112
      5 C          18.6663   70.8245   -2.5007 C.3     1  UNL1        0.1811
      6 C          17.0151   70.5330   -5.6812 C.3     1  UNL1        0.2383
      7 C          16.9921   69.0975   -5.0989 C.3     1  UNL1        0.1895
      8 O          15.8382   68.3837   -5.5443 O.3     1  UNL1       -0.3779
      9 C          16.9218   69.3662   -3.5731 C.3     1  UNL1        0.1713
     10 C          17.4458   70.8074   -3.4222 C.3     1  UNL1        0.1764
     11 O          17.8159   71.2693   -4.7325 O.3     1  UNL1       -0.3308
     12 O          15.5737   69.2659   -3.1090 O.3     1  UNL1       -0.3794
     13 H          15.8841   67.5023   -5.1487 H       1  UNL1        0.2106
     14 H          15.2844   68.3607   -3.2850 H       1  UNL1        0.2105
     15 N          17.6398   70.5467   -7.0045 N.ar    1  UNL1       -0.2551
     16 C          16.8717   70.4648   -8.1048 C.ar    1  UNL1        0.3323
     17 N          17.4188   70.4791   -9.3347 N.ar    1  UNL1       -0.2743
     18 C          18.7561   70.5672   -9.4825 C.ar    1  UNL1        0.2626
     19 C          19.5769   70.6480   -8.3325 C.ar    1  UNL1        0.0795
     20 C          19.0015   70.6370   -7.1110 C.ar    1  UNL1        0.0869
     21 O          15.6640   70.3850   -7.9878 O.2     1  UNL1       -0.2464
     22 O          19.2521   70.5754  -10.5939 O.2     1  UNL1       -0.2670
     23 H          16.8493   70.4240  -10.1175 H       1  UNL1        0.1734
     24 O          21.3275   70.4851   -1.8456 O.3     1  UNL1       -0.2703
     25 P          21.8346   71.2112   -0.5021 P.3     1  UNL1        0.2208
     26 O          23.3118   71.1584   -0.4404 O.2     1  UNL1       -0.5170
     27 O          21.2174   70.4593    0.7808 O.3     1  UNL1       -0.4371
     28 O          21.3523   72.7467   -0.5057 O.3     1  UNL1       -0.2865
     29 C          20.7602   72.9983    0.7700 C.3     1  UNL1        0.2611
     30 C          19.7053   74.0970    0.6293 C.3     1  UNL1        0.1582
     31 C          20.3716   75.3646    0.0827 C.3     1  UNL1        0.1625
     32 C          21.5642   75.7166    0.9781 C.3     1  UNL1        0.1686
     33 C          22.4806   74.4963    1.0899 C.3     1  UNL1        0.1760
     34 O          19.4310   76.4401    0.0875 O.3     1  UNL1       -0.3801
     35 O          22.2868   76.8077    0.4047 O.3     1  UNL1       -0.3794
     36 O          21.7699   73.4128    1.6876 O.3     1  UNL1       -0.3263
     37 H          19.8910   77.2151   -0.2634 H       1  UNL1        0.2105
     38 H          23.0276   76.9955    0.9984 H       1  UNL1        0.2105
     39 C          17.3712   73.9735   -0.0570 C.2     1  UNL1        0.2231
     40 C          16.2938   73.5184   -1.0081 C.3     1  UNL1        0.0946
     41 N          18.6583   73.6556   -0.2945 N.am    1  UNL1       -0.2994
     42 O          17.0792   74.6253    0.9228 O.2     1  UNL1       -0.2751
     43 H          18.8922   73.1338   -1.0784 H       1  UNL1        0.1496
     44 C          23.6921   74.8475    1.9561 C.3     1  UNL1        0.1693
     45 O          24.8380   74.1361    1.4841 O.3     1  UNL1       -0.3794
     46 H          25.5769   74.3849    2.0557 H       1  UNL1        0.2105
@<TRIPOS>BOND
     1    29    30    1
     2    29    28    1
     3    29    36    1
     4    30    31    1
     5    30    41    1
     6    31    32    1
     7    31    34    1
     8    32    33    1
     9    32    35    1
    10    33    44    1
    11    33    36    1
    12    44    45    1
    13    39    40    1
    14    39    41   am
    15    39    42    2
    16    41    43    1
    17    28    25    1
    18    34    37    1
    19    35    38    1
    20    45    46    1
    21    15    16   ar
    22    15    20   ar
    23    15     6    1
    24    16    17   ar
    25    16    21    2
    26    17    18   ar
    27    17    23    1
    28    18    19   ar
    29    18    22    2
    30    19    20   ar
    31     6     7    1
    32     6    11    1
    33     7     8    1
    34     7     9    1
    35     8    13    1
    36     9    10    1
    37     9    12    1
    38    10    11    1
    39    10     5    1
    40    12    14    1
    41     5     4    1
    42     4     1    1
    43     1     2    2
    44     1     3    1
    45     1    24    1
    46    24    25    1
    47    25    26    2
    48    25    27    1
@<TRIPOS>MOLECULE
UD1
 46 48 0 0 0
SMALL
GASTEIGER

@<TRIPOS>ATOM
      1 P          16.3477   70.6570   -2.8406 P.3     1  UNL1        0.2189
      2 O          17.7512   70.5300   -2.3903 O.2     1  UNL1       -0.5170
      3 O          15.6234   71.8340   -2.0143 O.3     1  UNL1       -0.4371
      4 O          15.5745   69.2681   -2.5839 O.3     1  UNL1       -0.3112
      5 C          15.3659   69.1650   -1.1745 C.3     1  UNL1        0.1811
      6 C          12.4272   68.3538    0.7317 C.3     1  UNL1        0.2383
      7 C          12.8889   69.7218    1.2934 C.3     1  UNL1        0.1895
      8 O          11.7749   70.4876    1.7536 O.3     1  UNL1       -0.3779
      9 C          13.5382   70.3822    0.0494 C.3     1  UNL1        0.1713
     10 C          13.8660   69.1949   -0.8765 C.3     1  UNL1        0.1764
     11 O          13.4804   67.9934   -0.1873 O.3     1  UNL1       -0.3308
     12 O          12.6180   71.2766   -0.5799 O.3     1  UNL1       -0.3794
     13 H          12.1286   71.3228    2.0895 H       1  UNL1        0.2106
     14 H          12.4066   71.9615    0.0684 H       1  UNL1        0.2105
     15 N          12.3158   67.3633    1.8031 N.ar    1  UNL1       -0.2551
     16 C          13.4293   66.8423    2.3473 C.ar    1  UNL1        0.3323
     17 N          13.3568   65.9325    3.3368 N.ar    1  UNL1       -0.2743
     18 C          12.1574   65.5200    3.7941 C.ar    1  UNL1        0.2626
     19 C          10.9771   66.0558    3.2260 C.ar    1  UNL1        0.0795
     20 C          11.0787   66.9709    2.2384 C.ar    1  UNL1        0.0869
     21 O          14.5184   67.2044    1.9456 O.2     1  UNL1       -0.2464
     22 O          12.0907   64.6939    4.6855 O.2     1  UNL1       -0.2670
     23 H          14.1703   65.5708    3.7211 H       1  UNL1        0.1734
     24 O          16.3174   71.0055   -4.4111 O.3     1  UNL1       -0.2703
     25 P          17.2386   69.9111   -5.1480 P.3     1  UNL1        0.2208
     26 O          16.6000   69.5042   -6.4190 O.2     1  UNL1       -0.5170
     27 O          17.4079   68.6231   -4.1969 O.3     1  UNL1       -0.4371
     28 O          18.6863   70.5445   -5.4537 O.3     1  UNL1       -0.2865
     29 C          18.5024   71.9554   -5.5833 C.3     1  UNL1        0.2611
     30 C          19.1593   72.4333   -6.8795 C.3     1  UNL1        0.1582
     31 C          20.6512   72.0831   -6.8441 C.3     1  UNL1        0.1625
     32 C          21.2579   72.6523   -5.5573 C.3     1  UNL1        0.1686
     33 C          20.4443   72.1553   -4.3605 C.3     1  UNL1        0.1760
     34 O          21.3043   72.6547   -7.9791 O.3     1  UNL1       -0.3801
     35 O          22.6118   72.2131   -5.4322 O.3     1  UNL1       -0.3794
     36 O          19.0978   72.6154   -4.4683 O.3     1  UNL1       -0.3263
     37 H          22.2378   72.4100   -7.9169 H       1  UNL1        0.2105
     38 H          22.9542   72.5928   -4.6106 H       1  UNL1        0.2105
     39 C          19.0863   70.6689   -8.5576 C.2     1  UNL1        0.2231
     40 C          18.4352   69.9880   -9.7343 C.3     1  UNL1        0.0946
     41 N          18.5269   71.7711   -8.0223 N.am    1  UNL1       -0.2994
     42 O          20.1144   70.2249   -8.0929 O.2     1  UNL1       -0.2751
     43 H          17.7042   72.1268   -8.3942 H       1  UNL1        0.1496
     44 C          21.0617   72.6921   -3.0675 C.3     1  UNL1        0.1693
     45 O          20.1245   72.5523   -1.9978 O.3     1  UNL1       -0.3794
     46 H          20.5518   72.9016   -1.2040 H       1  UNL1        0.2105
@<TRIPOS>BOND
     1    29    30    1
     2    29    28    1
     3    29    36    1
     4    30    31    1
     5    30    41    1
     6    31    32    1
     7    31    34    1
     8    32    33    1
     9    32    35    1
    10    33    44    1
    11    33    36    1
    12    44    45    1
    13    39    40    1
    14    39    41   am
    15    39    42    2
    16    41    43    1
    17    28    25    1
    18    34    37    1
    19    35    38    1
    20    45    46    1
    21    15    16   ar
    22    15    20   ar
    23    15     6    1
    24    16    17   ar
    25    16    21    2
    26    17    18   ar
    27    17    23    1
    28    18    19   ar
    29    18    22    2
    30    19    20   ar
    31     6     7    1
    32     6    11    1
    33     7     8    1
    34     7     9    1
    35     8    13    1
    36     9    10    1
    37     9    12    1
    38    10    11    1
    39    10     5    1
    40    12    14    1
    41     5     4    1
    42     4     1    1
    43     1     2    2
    44     1     3    1
    45     1    24    1
    46    24    25    1
    47    25    26    2
    48    25    27    1
@<TRIPOS>MOLECULE
UD1
 46 48 0 0 0
SMALL
GASTEIGER

@<TRIPOS>ATOM
      1 P          21.0537   71.1516   -2.7831 P.3     1  UNL1        0.2189
      2 O          21.9457   72.1820   -3.3588 O.2     1  UNL1       -0.5170
      3 O          21.0725   69.8417   -3.7191 O.3     1  UNL1       -0.4371
      4 O          19.5526   71.7284   -2.6991 O.3     1  UNL1       -0.3112
      5 C          18.6959   70.6161   -2.4364 C.3     1  UNL1        0.1811
      6 C          17.0443   70.4974   -5.6278 C.3     1  UNL1        0.2383
      7 C          16.9610   69.0456   -5.0934 C.3     1  UNL1        0.1895
      8 O          15.7805   68.3946   -5.5643 O.3     1  UNL1       -0.3779
      9 C          16.8969   69.2664   -3.5597 C.3     1  UNL1        0.1713
     10 C          17.4786   70.6793   -3.3602 C.3     1  UNL1        0.1764
     11 O          17.8714   71.1688   -4.6537 O.3     1  UNL1       -0.3308
     12 O          15.5444   69.2059   -3.1016 O.3     1  UNL1       -0.3794
     13 H          15.7892   67.4995   -5.1981 H       1  UNL1        0.2106
     14 H          15.2190   68.3195   -3.3080 H       1  UNL1        0.2105
     15 N          17.6732   70.5294   -6.9488 N.ar    1  UNL1       -0.2551
     16 C          16.9077   70.4759   -8.0526 C.ar    1  UNL1        0.3323
     17 N          17.4587   70.5075   -9.2804 N.ar    1  UNL1       -0.2743
     18 C          18.7973   70.5846   -9.4227 C.ar    1  UNL1        0.2626
     19 C          19.6154   70.6356   -8.2690 C.ar    1  UNL1        0.0795
     20 C          19.0361   70.6077   -7.0496 C.ar    1  UNL1        0.0869
     21 O          15.6989   70.4062   -7.9406 O.2     1  UNL1       -0.2464
     22 O          19.2969   70.6084  -10.5323 O.2     1  UNL1       -0.2670
     23 H          16.8911   70.4728  -10.0658 H       1  UNL1        0.1734
     24 O          21.5631   70.7648   -1.3067 O.3     1  UNL1       -0.2703
     25 P          21.8020   72.1481   -0.5201 P.3     1  UNL1        0.2208
     26 O          23.1579   72.6582   -0.8201 O.2     1  UNL1       -0.5170
     27 O          21.6624   71.8964    1.0640 O.3     1  UNL1       -0.4371
     28 O          20.7060   73.2296   -0.9887 O.3     1  UNL1       -0.2865
     29 C          21.1725   74.5079   -0.5534 C.3     1  UNL1        0.2611
     30 C          20.0945   75.1739    0.3036 C.3     1  UNL1        0.1582
     31 C          18.8136   75.3190   -0.5258 C.3     1  UNL1        0.1625
     32 C          19.1538   76.0493   -1.8292 C.3     1  UNL1        0.1686
     33 C          20.3009   75.3153   -2.5269 C.3     1  UNL1        0.1760
     34 O          17.8488   76.0723    0.2112 O.3     1  UNL1       -0.3801
     35 O          18.0069   76.0658   -2.6812 O.3     1  UNL1       -0.3794
     36 O          21.4567   75.3209   -1.6898 O.3     1  UNL1       -0.3263
     37 H          17.0612   76.1387   -0.3461 H       1  UNL1        0.2105
     38 H          18.2648   76.5330   -3.4885 H       1  UNL1        0.2105
     39 C          19.6476   74.9250    2.6853 C.2     1  UNL1        0.2231
     40 C          19.3708   74.0734    3.8979 C.3     1  UNL1        0.0946
     41 N          19.8250   74.3470    1.4817 N.am    1  UNL1       -0.2994
     42 O          19.7114   76.1311    2.7933 O.2     1  UNL1       -0.2751
     43 H          19.7743   73.3819    1.3952 H       1  UNL1        0.1496
     44 C          20.6269   76.0182   -3.8463 C.3     1  UNL1        0.1693
     45 O          19.6266   77.0005   -4.1230 O.3     1  UNL1       -0.3794
     46 H          19.8689   77.4185   -4.9604 H       1  UNL1        0.2105
@<TRIPOS>BOND
     1    29    30    1
     2    29    28    1
     3    29    36    1
     4    30    31    1
     5    30    41    1
     6    31    32    1
     7    31    34    1
     8    32    33    1
     9    32    35    1
    10    33    44    1
    11    33    36    1
    12    44    45    1
    13    39    40    1
    14    39    41   am
    15    39    42    2
    16    41    43    1
    17    28    25    1
    18    34    37    1
    19    35    38    1
    20    45    46    1
    21    15    16   ar
    22    15    20   ar
    23    15     6    1
    24    16    17   ar
    25    16    21    2
    26    17    18   ar
    27    17    23    1
    28    18    19   ar
    29    18    22    2
    30    19    20   ar
    31     6     7    1
    32     6    11    1
    33     7     8    1
    34     7     9    1
    35     8    13    1
    36     9    10    1
    37     9    12    1
    38    10    11    1
    39    10     5    1
    40    12    14    1
    41     5     4    1
    42     4     1    1
    43     1     2    2
    44     1     3    1
    45     1    24    1
    46    24    25    1
    47    25    26    2
    48    25    27    1
@<TRIPOS>MOLECULE
UD1
 46 48 0 0 0
SMALL
GASTEIGER

@<TRIPOS>ATOM
      1 P          20.4686   71.0311   -2.0944 P.3     1  UNL1        0.2189
      2 O          20.5992   70.6351   -0.6749 O.2     1  UNL1       -0.5170
      3 O          20.3893   72.6359   -2.1989 O.3     1  UNL1       -0.4371
      4 O          19.1268   70.3873   -2.7093 O.3     1  UNL1       -0.3112
      5 C          18.0871   71.3508   -2.5329 C.3     1  UNL1        0.1811
      6 C          16.7638   70.5749   -5.7847 C.3     1  UNL1        0.2383
      7 C          16.9069   69.1997   -5.0856 C.3     1  UNL1        0.1895
      8 O          15.9125   68.2852   -5.5482 O.3     1  UNL1       -0.3779
      9 C          16.6727   69.5654   -3.5968 C.3     1  UNL1        0.1713
     10 C          16.9623   71.0775   -3.5326 C.3     1  UNL1        0.1764
     11 O          17.3657   71.4938   -4.8483 O.3     1  UNL1       -0.3308
     12 O          15.3211   69.2919   -3.2210 O.3     1  UNL1       -0.3794
     13 H          16.0564   67.4529   -5.0770 H       1  UNL1        0.2106
     14 H          15.1851   68.3424   -3.3393 H       1  UNL1        0.2105
     15 N          17.4857   70.5881   -7.0575 N.ar    1  UNL1       -0.2551
     16 C          16.7990   70.5797   -8.2132 C.ar    1  UNL1        0.3323
     17 N          17.4367   70.5955   -9.3986 N.ar    1  UNL1       -0.2743
     18 C          18.7841   70.6107   -9.4451 C.ar    1  UNL1        0.2626
     19 C          19.5196   70.6137   -8.2360 C.ar    1  UNL1        0.0795
     20 C          18.8545   70.6031   -7.0610 C.ar    1  UNL1        0.0869
     21 O          15.5833   70.5660   -8.1876 O.2     1  UNL1       -0.2464
     22 O          19.3618   70.6202  -10.5164 O.2     1  UNL1       -0.2670
     23 H          16.9253   70.5939  -10.2224 H       1  UNL1        0.1734
     24 O          21.7445   70.5011   -2.9191 O.3     1  UNL1       -0.2703
     25 P          23.0160   71.3372   -2.3961 P.3     1  UNL1        0.2208
     26 O          24.2524   70.7696   -2.9775 O.2     1  UNL1       -0.5170
     27 O          23.0912   71.2526   -0.7901 O.3     1  UNL1       -0.4371
     28 O          22.8695   72.8759   -2.8448 O.3     1  UNL1       -0.2865
     29 C          24.0207   73.1900   -3.6304 C.3     1  UNL1        0.2611
     30 C          24.3972   74.6563   -3.4109 C.3     1  UNL1        0.1582
     31 C          23.2120   75.5432   -3.8089 C.3     1  UNL1        0.1625
     32 C          22.7902   75.1852   -5.2379 C.3     1  UNL1        0.1686
     33 C          22.5319   73.6792   -5.3189 C.3     1  UNL1        0.1760
     34 O          23.6009   76.9168   -3.7508 O.3     1  UNL1       -0.3801
     35 O          21.5971   75.8950   -5.5761 O.3     1  UNL1       -0.3794
     36 O          23.7292   72.9674   -5.0084 O.3     1  UNL1       -0.3263
     37 H          22.8274   77.4373   -4.0077 H       1  UNL1        0.2105
     38 H          21.3671   75.6404   -6.4809 H       1  UNL1        0.2105
     39 C          23.7594   75.2665   -1.1403 C.2     1  UNL1        0.2231
     40 C          24.0920   75.4901    0.3128 C.3     1  UNL1        0.0946
     41 N          24.7197   74.8732   -1.9990 N.am    1  UNL1       -0.2994
     42 O          22.6270   75.4413   -1.5369 O.2     1  UNL1       -0.2751
     43 H          25.6261   74.7335   -1.6819 H       1  UNL1        0.1496
     44 C          22.0785   73.3161   -6.7344 C.3     1  UNL1        0.1693
     45 O          22.9762   72.3532   -7.2903 O.3     1  UNL1       -0.3794
     46 H          22.6556   72.1526   -8.1800 H       1  UNL1        0.2105
@<TRIPOS>BOND
     1    29    30    1
     2    29    28    1
     3    29    36    1
     4    30    31    1
     5    30    41    1
     6    31    32    1
     7    31    34    1
     8    32    33    1
     9    32    35    1
    10    33    44    1
    11    33    36    1
    12    44    45    1
    13    39    40    1
    14    39    41   am
    15    39    42    2
    16    41    43    1
    17    28    25    1
    18    34    37    1
    19    35    38    1
    20    45    46    1
    21    15    16   ar
    22    15    20   ar
    23    15     6    1
    24    16    17   ar
    25    16    21    2
    26    17    18   ar
    27    17    23    1
    28    18    19   ar
    29    18    22    2
    30    19    20   ar
    31     6     7    1
    32     6    11    1
    33     7     8    1
    34     7     9    1
    35     8    13    1
    36     9    10    1
    37     9    12    1
    38    10    11    1
    39    10     5    1
    40    12    14    1
    41     5     4    1
    42     4     1    1
    43     1     2    2
    44     1     3    1
    45     1    24    1
    46    24    25    1
    47    25    26    2
    48    25    27    1
@<TRIPOS>MOLECULE
UD1
 46 48 0 0 0
SMALL
GASTEIGER

@<TRIPOS>ATOM
      1 P          22.3114   71.2875   -0.3737 P.3     1  UNL1        0.2189
      2 O          21.5979   70.3234    0.4925 O.2     1  UNL1       -0.5170
      3 O          23.8943   71.0001   -0.3063 O.3     1  UNL1       -0.4371
      4 O          22.0170   72.7862    0.1361 O.3     1  UNL1       -0.3112
      5 C          23.0116   73.0936    1.1141 C.3     1  UNL1        0.1811
      6 C          22.8110   73.1794    4.7030 C.3     1  UNL1        0.2383
      7 C          21.5529   73.9470    4.2254 C.3     1  UNL1        0.1895
      8 O          20.4777   73.7932    5.1525 O.3     1  UNL1       -0.3779
      9 C          21.2309   73.2411    2.8826 C.3     1  UNL1        0.1713
     10 C          22.5615   72.5757    2.4810 C.3     1  UNL1        0.1764
     11 O          23.5347   72.9236    3.4805 O.3     1  UNL1       -0.3308
     12 O          20.2084   72.2595    3.0659 O.3     1  UNL1       -0.3794
     13 H          19.7290   74.2929    4.7987 H       1  UNL1        0.2106
     14 H          19.4219   72.7296    3.3734 H       1  UNL1        0.2105
     15 N          23.6084   74.0035    5.6120 N.ar    1  UNL1       -0.2551
     16 C          24.7506   74.5625    5.1759 C.ar    1  UNL1        0.3323
     17 N          25.5020   75.3284    5.9890 N.ar    1  UNL1       -0.2743
     18 C          25.1223   75.5405    7.2652 C.ar    1  UNL1        0.2626
     19 C          23.9251   74.9531    7.7391 C.ar    1  UNL1        0.0795
     20 C          23.1877   74.1937    6.9007 C.ar    1  UNL1        0.0869
     21 O          25.1064   74.3805    4.0275 O.2     1  UNL1       -0.2464
     22 O          25.8034   76.2289    8.0025 O.2     1  UNL1       -0.2670
     23 H          26.3206   75.7277    5.6563 H       1  UNL1        0.1734
     24 O          21.8000   71.1267   -1.8907 O.3     1  UNL1       -0.2703
     25 P          22.9694   71.6956   -2.8384 P.3     1  UNL1        0.2208
     26 O          24.1437   70.7987   -2.7651 O.2     1  UNL1       -0.5170
     27 O          23.3898   73.1700   -2.3469 O.3     1  UNL1       -0.4371
     28 O          22.4433   71.7677   -4.3578 O.3     1  UNL1       -0.2865
     29 C          21.3224   72.6534   -4.3667 C.3     1  UNL1        0.2611
     30 C          20.1066   71.9237   -4.9407 C.3     1  UNL1        0.1582
     31 C          20.4320   71.4483   -6.3612 C.3     1  UNL1        0.1625
     32 C          20.9187   72.6485   -7.1802 C.3     1  UNL1        0.1686
     33 C          22.0754   73.3218   -6.4386 C.3     1  UNL1        0.1760
     34 O          19.2584   70.8983   -6.9626 O.3     1  UNL1       -0.3801
     35 O          21.3660   72.2026   -8.4619 O.3     1  UNL1       -0.3794
     36 O          21.6250   73.7927   -5.1690 O.3     1  UNL1       -0.3263
     37 H          19.5081   70.6124   -7.8521 H       1  UNL1        0.2105
     38 H          21.6637   72.9877   -8.9430 H       1  UNL1        0.2105
     39 C          18.5753   70.6767   -3.5143 C.2     1  UNL1        0.2231
     40 C          18.2453   69.4887   -2.6472 C.3     1  UNL1        0.0946
     41 N          19.7854   70.7695   -4.0986 N.am    1  UNL1       -0.2994
     42 O          17.7515   71.5498   -3.6857 O.2     1  UNL1       -0.2751
     43 H          20.4449   70.0711   -3.9615 H       1  UNL1        0.1496
     44 C          22.5904   74.5026   -7.2641 C.3     1  UNL1        0.1693
     45 O          23.6882   75.1161   -6.5854 O.3     1  UNL1       -0.3794
     46 H          23.9817   75.8534   -7.1375 H       1  UNL1        0.2105
@<TRIPOS>BOND
     1    29    30    1
     2    29    28    1
     3    29    36    1
     4    30    31    1
     5    30    41    1
     6    31    32    1
     7    31    34    1
     8    32    33    1
     9    32    35    1
    10    33    44    1
    11    33    36    1
    12    44    45    1
    13    39    40    1
    14    39    41   am
    15    39    42    2
    16    41    43    1
    17    28    25    1
    18    34    37    1
    19    35    38    1
    20    45    46    1
    21    15    16   ar
    22    15    20   ar
    23    15     6    1
    24    16    17   ar
    25    16    21    2
    26    17    18   ar
    27    17    23    1
    28    18    19   ar
    29    18    22    2
    30    19    20   ar
    31     6     7    1
    32     6    11    1
    33     7     8    1
    34     7     9    1
    35     8    13    1
    36     9    10    1
    37     9    12    1
    38    10    11    1
    39    10     5    1
    40    12    14    1
    41     5     4    1
    42     4     1    1
    43     1     2    2
    44     1     3    1
    45     1    24    1
    46    24    25    1
    47    25    26    2
    48    25    27    1
@<TRIPOS>MOLECULE
UD1
 46 48 0 0 0
SMALL
GASTEIGER

@<TRIPOS>ATOM
      1 P          20.8809   71.8073   -2.4528 P.3     1  UNL1        0.2189
      2 O          21.6697   72.8026   -3.2117 O.2     1  UNL1       -0.5170
      3 O          21.1847   70.3329   -3.0243 O.3     1  UNL1       -0.4371
      4 O          19.3119   72.1313   -2.6135 O.3     1  UNL1       -0.3112
      5 C          18.6119   70.9046   -2.3999 C.3     1  UNL1        0.1811
      6 C          17.0005   70.5413   -5.5935 C.3     1  UNL1        0.2383
      7 C          17.0272   69.1077   -5.0068 C.3     1  UNL1        0.1895
      8 O          15.9052   68.3491   -5.4597 O.3     1  UNL1       -0.3779
      9 C          16.9335   69.3778   -3.4825 C.3     1  UNL1        0.1713
     10 C          17.4009   70.8384   -3.3318 C.3     1  UNL1        0.1764
     11 O          17.7645   71.3103   -4.6403 O.3     1  UNL1       -0.3308
     12 O          15.5863   69.2276   -3.0295 O.3     1  UNL1       -0.3794
     13 H          15.9812   67.4712   -5.0609 H       1  UNL1        0.2106
     14 H          15.3332   68.3115   -3.2051 H       1  UNL1        0.2105
     15 N          17.6356   70.5750   -6.9114 N.ar    1  UNL1       -0.2551
     16 C          16.8775   70.4932   -8.0186 C.ar    1  UNL1        0.3323
     17 N          17.4343   70.5257   -9.2439 N.ar    1  UNL1       -0.2743
     18 C          18.7715   70.6322   -9.3799 C.ar    1  UNL1        0.2626
     19 C          19.5820   70.7131   -8.2226 C.ar    1  UNL1        0.0795
     20 C          18.9969   70.6836   -7.0060 C.ar    1  UNL1        0.0869
     21 O          15.6701   70.3969   -7.9122 O.2     1  UNL1       -0.2464
     22 O          19.2764   70.6569  -10.4871 O.2     1  UNL1       -0.2670
     23 H          16.8719   70.4704  -10.0318 H       1  UNL1        0.1734
     24 O          21.2860   71.8748   -0.8971 O.3     1  UNL1       -0.2703
     25 P          21.1856   73.4194   -0.4572 P.3     1  UNL1        0.2208
     26 O          19.9023   73.9842   -0.9292 O.2     1  UNL1       -0.5170
     27 O          22.4057   74.2439   -1.1082 O.3     1  UNL1       -0.4371
     28 O          21.2620   73.5279    1.1469 O.3     1  UNL1       -0.2865
     29 C          21.0094   74.8935    1.4824 C.3     1  UNL1        0.2611
     30 C          22.1892   75.4424    2.2866 C.3     1  UNL1        0.1582
     31 C          22.3684   74.5982    3.5534 C.3     1  UNL1        0.1625
     32 C          21.0333   74.5511    4.3040 C.3     1  UNL1        0.1686
     33 C          19.9411   74.0663    3.3482 C.3     1  UNL1        0.1760
     34 O          23.3685   75.1892    4.3852 O.3     1  UNL1       -0.3801
     35 O          21.1376   73.6509    5.4087 O.3     1  UNL1       -0.3794
     36 O          19.8155   74.9780    2.2575 O.3     1  UNL1       -0.3263
     37 H          23.4487   74.6272    5.1681 H       1  UNL1        0.2105
     38 H          20.2772   73.6510    5.8518 H       1  UNL1        0.2105
     39 C          24.2713   76.4096    1.4721 C.2     1  UNL1        0.2231
     40 C          25.5249   76.3413    0.6377 C.3     1  UNL1        0.0946
     41 N          23.4073   75.3763    1.4766 N.am    1  UNL1       -0.2994
     42 O          24.0400   77.3954    2.1391 O.2     1  UNL1       -0.2751
     43 H          23.5921   74.5874    0.9427 H       1  UNL1        0.1496
     44 C          18.6093   73.9846    4.0970 C.3     1  UNL1        0.1693
     45 O          18.8556   73.7315    5.4817 O.3     1  UNL1       -0.3794
     46 H          17.9930   73.6873    5.9158 H       1  UNL1        0.2105
@<TRIPOS>BOND
     1    29    30    1
     2    29    28    1
     3    29    36    1
     4    30    31    1
     5    30    41    1
     6    31    32    1
     7    31    34    1
     8    32    33    1
     9    32    35    1
    10    33    44    1
    11    33    36    1
    12    44    45    1
    13    39    40    1
    14    39    41   am
    15    39    42    2
    16    41    43    1
    17    28    25    1
    18    34    37    1
    19    35    38    1
    20    45    46    1
    21    15    16   ar
    22    15    20   ar
    23    15     6    1
    24    16    17   ar
    25    16    21    2
    26    17    18   ar
    27    17    23    1
    28    18    19   ar
    29    18    22    2
    30    19    20   ar
    31     6     7    1
    32     6    11    1
    33     7     8    1
    34     7     9    1
    35     8    13    1
    36     9    10    1
    37     9    12    1
    38    10    11    1
    39    10     5    1
    40    12    14    1
    41     5     4    1
    42     4     1    1
    43     1     2    2
    44     1     3    1
    45     1    24    1
    46    24    25    1
    47    25    26    2
    48    25    27    1
@<TRIPOS>MOLECULE
UD1
 46 48 0 0 0
SMALL
GASTEIGER

@<TRIPOS>ATOM
      1 P          21.6598   72.6455   -6.4870 P.3     1  UNL1        0.2189
      2 O          21.0109   73.6554   -7.3518 O.2     1  UNL1       -0.5170
      3 O          23.2589   72.8119   -6.5744 O.3     1  UNL1       -0.4371
      4 O          21.2469   71.1702   -6.9830 O.3     1  UNL1       -0.3112
      5 C          20.5074   71.3326   -8.1942 C.3     1  UNL1        0.1811
      6 C          17.3778   70.0963   -6.9278 C.3     1  UNL1        0.2383
      7 C          16.9775   71.1169   -8.0225 C.3     1  UNL1        0.1895
      8 O          15.7458   70.7451   -8.6421 O.3     1  UNL1       -0.3779
      9 C          18.1572   71.0010   -9.0226 C.3     1  UNL1        0.1713
     10 C          19.2997   70.3943   -8.1853 C.3     1  UNL1        0.1764
     11 O          18.8117   70.2383   -6.8419 O.3     1  UNL1       -0.3308
     12 O          17.8103   70.1376  -10.1075 O.3     1  UNL1       -0.3794
     13 H          15.5539   71.4180   -9.3099 H       1  UNL1        0.2106
     14 H          17.0543   70.5408  -10.5546 H       1  UNL1        0.2105
     15 N          16.7484   70.4317   -5.6499 N.ar    1  UNL1       -0.2551
     16 C          16.4078   69.4500   -4.7970 C.ar    1  UNL1        0.3323
     17 N          15.8312   69.7295   -3.6131 N.ar    1  UNL1       -0.2743
     18 C          15.5763   71.0073   -3.2663 C.ar    1  UNL1        0.2626
     19 C          15.9243   72.0502   -4.1574 C.ar    1  UNL1        0.0795
     20 C          16.5064   71.7420   -5.3361 C.ar    1  UNL1        0.0869
     21 O          16.6313   68.2926   -5.0955 O.2     1  UNL1       -0.2464
     22 O          15.0506   71.2609   -2.1982 O.2     1  UNL1       -0.2670
     23 H          15.5964   69.0092   -3.0080 H       1  UNL1        0.1734
     24 O          21.1799   72.8538   -4.9655 O.3     1  UNL1       -0.2703
     25 P          22.4596   73.3767   -4.1419 P.3     1  UNL1        0.2208
     26 O          22.7993   74.7491   -4.5776 O.2     1  UNL1       -0.5170
     27 O          23.7109   72.4018   -4.4173 O.3     1  UNL1       -0.4371
     28 O          22.1213   73.3816   -2.5683 O.3     1  UNL1       -0.2865
     29 C          23.1380   72.6126   -1.9234 C.3     1  UNL1        0.2611
     30 C          22.5031   71.3855   -1.2668 C.3     1  UNL1        0.1582
     31 C          21.4497   71.8478   -0.2537 C.3     1  UNL1        0.1625
     32 C          22.1027   72.8404    0.7139 C.3     1  UNL1        0.1686
     33 C          22.7654   73.9596   -0.0922 C.3     1  UNL1        0.1760
     34 O          20.9564   70.7204    0.4722 O.3     1  UNL1       -0.3801
     35 O          21.1060   73.3950    1.5745 O.3     1  UNL1       -0.3794
     36 O          23.7804   73.4123   -0.9328 O.3     1  UNL1       -0.3263
     37 H          20.2981   71.0561    1.0961 H       1  UNL1        0.2105
     38 H          21.5591   74.0134    2.1651 H       1  UNL1        0.2105
     39 C          20.5468   70.6738   -2.5320 C.2     1  UNL1        0.2231
     40 C          19.8923   69.8188   -3.5869 C.3     1  UNL1        0.0946
     41 N          21.8669   70.5555   -2.2918 N.am    1  UNL1       -0.2994
     42 O          19.8848   71.4680   -1.8986 O.2     1  UNL1       -0.2751
     43 H          22.3968   69.9199   -2.7984 H       1  UNL1        0.1496
     44 C          23.3928   74.9739    0.8662 C.3     1  UNL1        0.1693
     45 O          22.4599   76.0247    1.1260 O.3     1  UNL1       -0.3794
     46 H          22.8937   76.6406    1.7320 H       1  UNL1        0.2105
@<TRIPOS>BOND
     1    29    30    1
     2    29    28    1
     3    29    36    1
     4    30    31    1
     5    30    41    1
     6    31    32    1
     7    31    34    1
     8    32    33    1
     9    32    35    1
    10    33    44    1
    11    33    36    1
    12    44    45    1
    13    39    40    1
    14    39    41   am
    15    39    42    2
    16    41    43    1
    17    28    25    1
    18    34    37    1
    19    35    38    1
    20    45    46    1
    21    15    16   ar
    22    15    20   ar
    23    15     6    1
    24    16    17   ar
    25    16    21    2
    26    17    18   ar
    27    17    23    1
    28    18    19   ar
    29    18    22    2
    30    19    20   ar
    31     6     7    1
    32     6    11    1
    33     7     8    1
    34     7     9    1
    35     8    13    1
    36     9    10    1
    37     9    12    1
    38    10    11    1
    39    10     5    1
    40    12    14    1
    41     5     4    1
    42     4     1    1
    43     1     2    2
    44     1     3    1
    45     1    24    1
    46    24    25    1
    47    25    26    2
    48    25    27    1
@<TRIPOS>MOLECULE
UD1
 46 48 0 0 0
SMALL
GASTEIGER

@<TRIPOS>ATOM
      1 P          14.4630   71.1684   -1.6628 P.3     1  UNL1        0.2189
      2 O          15.2883   71.9684   -0.7313 O.2     1  UNL1       -0.5170
      3 O          12.9228   71.6211   -1.5394 O.3     1  UNL1       -0.4371
      4 O          14.5941   69.6075   -1.2898 O.3     1  UNL1       -0.3112
      5 C          14.2446   69.4808    0.0894 C.3     1  UNL1        0.1811
      6 C          13.1835   66.7796    2.2118 C.3     1  UNL1        0.2383
      7 C          11.8657   67.4479    1.7460 C.3     1  UNL1        0.1895
      8 O          10.8089   66.4911    1.6630 O.3     1  UNL1       -0.3779
      9 C          12.2475   67.9742    0.3380 C.3     1  UNL1        0.1713
     10 C          13.7863   68.0490    0.3709 C.3     1  UNL1        0.1764
     11 O          14.2078   67.6505    1.6865 O.3     1  UNL1       -0.3308
     12 O          11.8059   67.0652   -0.6727 O.3     1  UNL1       -0.3794
     13 H          10.0207   66.9689    1.3697 H       1  UNL1        0.2106
     14 H          10.8432   67.0164   -0.6030 H       1  UNL1        0.2105
     15 N          13.2506   66.7263    3.6727 N.ar    1  UNL1       -0.2551
     16 C          12.8864   65.6033    4.3159 C.ar    1  UNL1        0.3323
     17 N          12.9418   65.5247    5.6587 N.ar    1  UNL1       -0.2743
     18 C          13.3576   66.5820    6.3847 C.ar    1  UNL1        0.2626
     19 C          13.7383   67.7724    5.7207 C.ar    1  UNL1        0.0795
     20 C          13.6782   67.8222    4.3726 C.ar    1  UNL1        0.0869
     21 O          12.5093   64.6413    3.6750 O.2     1  UNL1       -0.2464
     22 O          13.4035   66.5136    7.5990 O.2     1  UNL1       -0.2670
     23 H          12.6798   64.7052    6.1058 H       1  UNL1        0.1734
     24 O          14.9736   71.4044   -3.1702 O.3     1  UNL1       -0.2703
     25 P          16.3033   70.5171   -3.3550 P.3     1  UNL1        0.2208
     26 O          15.9304   69.1574   -3.8033 O.2     1  UNL1       -0.5170
     27 O          17.0857   70.4227   -1.9510 O.3     1  UNL1       -0.4371
     28 O          17.2583   71.2017   -4.4549 O.3     1  UNL1       -0.2865
     29 C          18.2365   70.2262   -4.8191 C.3     1  UNL1        0.2611
     30 C          19.6317   70.7670   -4.5011 C.3     1  UNL1        0.1582
     31 C          19.8527   72.0707   -5.2765 C.3     1  UNL1        0.1625
     32 C          19.5770   71.8107   -6.7612 C.3     1  UNL1        0.1686
     33 C          18.1844   71.1939   -6.9089 C.3     1  UNL1        0.1760
     34 O          21.2027   72.5063   -5.1059 O.3     1  UNL1       -0.3801
     35 O          19.6339   73.0437   -7.4810 O.3     1  UNL1       -0.3794
     36 O          18.1325   69.9486   -6.2139 O.3     1  UNL1       -0.3263
     37 H          21.2971   73.3270   -5.6086 H       1  UNL1        0.2105
     38 H          19.4543   72.8347   -8.4086 H       1  UNL1        0.2105
     39 C          20.8997   70.7856   -2.4212 C.2     1  UNL1        0.2231
     40 C          21.0113   71.0523   -0.9418 C.3     1  UNL1        0.0946
     41 N          19.7408   71.0263   -3.0641 N.am    1  UNL1       -0.2994
     42 O          21.8532   70.3536   -3.0330 O.2     1  UNL1       -0.2751
     43 H          18.9775   71.3719   -2.5746 H       1  UNL1        0.1496
     44 C          17.8861   70.9603   -8.3914 C.3     1  UNL1        0.1693
     45 O          16.4881   70.7203   -8.5643 O.3     1  UNL1       -0.3794
     46 H          16.3434   70.5781   -9.5095 H       1  UNL1        0.2105
@<TRIPOS>BOND
     1    29    30    1
     2    29    28    1
     3    29    36    1
     4    30    31    1
     5    30    41    1
     6    31    32    1
     7    31    34    1
     8    32    33    1
     9    32    35    1
    10    33    44    1
    11    33    36    1
    12    44    45    1
    13    39    40    1
    14    39    41   am
    15    39    42    2
    16    41    43    1
    17    28    25    1
    18    34    37    1
    19    35    38    1
    20    45    46    1
    21    15    16   ar
    22    15    20   ar
    23    15     6    1
    24    16    17   ar
    25    16    21    2
    26    17    18   ar
    27    17    23    1
    28    18    19   ar
    29    18    22    2
    30    19    20   ar
    31     6     7    1
    32     6    11    1
    33     7     8    1
    34     7     9    1
    35     8    13    1
    36     9    10    1
    37     9    12    1
    38    10    11    1
    39    10     5    1
    40    12    14    1
    41     5     4    1
    42     4     1    1
    43     1     2    2
    44     1     3    1
    45     1    24    1
    46    24    25    1
    47    25    26    2
    48    25    27    1
@<TRIPOS>MOLECULE
UD1
 46 48 0 0 0
SMALL
GASTEIGER

@<TRIPOS>ATOM
      1 P          22.5154   74.7944   -5.2102 P.3     1  UNL1        0.2189
      2 O          23.4237   74.3041   -6.2702 O.2     1  UNL1       -0.5170
      3 O          22.2260   76.3624   -5.4343 O.3     1  UNL1       -0.4371
      4 O          23.2044   74.5771   -3.7711 O.3     1  UNL1       -0.3112
      5 C          22.6982   75.5993   -2.9113 C.3     1  UNL1        0.1811
      6 C          21.8462   73.6276   -0.0280 C.3     1  UNL1        0.2383
      7 C          21.9998   75.0690    0.5190 C.3     1  UNL1        0.1895
      8 O          21.1382   75.2859    1.6369 O.3     1  UNL1       -0.3779
      9 C          21.5577   75.9268   -0.6951 C.3     1  UNL1        0.1713
     10 C          21.7282   74.9837   -1.9017 C.3     1  UNL1        0.1764
     11 O          22.2604   73.7435   -1.4059 O.3     1  UNL1       -0.3308
     12 O          20.1931   76.3276   -0.5541 O.3     1  UNL1       -0.3794
     13 H          21.2819   76.1968    1.9288 H       1  UNL1        0.2106
     14 H          20.1410   76.8637    0.2485 H       1  UNL1        0.2105
     15 N          22.7172   72.7015    0.6966 N.ar    1  UNL1       -0.2551
     16 C          22.2471   71.4986    1.0699 C.ar    1  UNL1        0.3323
     17 N          23.0270   70.6252    1.7341 N.ar    1  UNL1       -0.2743
     18 C          24.2981   70.9497    2.0453 C.ar    1  UNL1        0.2626
     19 C          24.8040   72.2151    1.6636 C.ar    1  UNL1        0.0795
     20 C          24.0017   73.0699    0.9936 C.ar    1  UNL1        0.0869
     21 O          21.1028   71.1914    0.7964 O.2     1  UNL1       -0.2464
     22 O          25.0027   70.1627    2.6499 O.2     1  UNL1       -0.2670
     23 H          22.6729   69.7600    1.9914 H       1  UNL1        0.1734
     24 O          21.1302   73.9780   -5.2704 O.3     1  UNL1       -0.2703
     25 P          21.5126   72.4153   -5.3018 P.3     1  UNL1        0.2208
     26 O          21.9566   71.9892   -3.9564 O.2     1  UNL1       -0.5170
     27 O          22.7018   72.1742   -6.3600 O.3     1  UNL1       -0.4371
     28 O          20.2245   71.5550   -5.7391 O.3     1  UNL1       -0.2865
     29 C          19.3083   72.4634   -6.3529 C.3     1  UNL1        0.2611
     30 C          18.0026   72.4792   -5.5560 C.3     1  UNL1        0.1582
     31 C          17.4189   71.0623   -5.5221 C.3     1  UNL1        0.1625
     32 C          17.2988   70.5471   -6.9602 C.3     1  UNL1        0.1686
     33 C          18.6586   70.6742   -7.6503 C.3     1  UNL1        0.1760
     34 O          16.1278   71.0909   -4.9108 O.3     1  UNL1       -0.3801
     35 O          16.8954   69.1765   -6.9448 O.3     1  UNL1       -0.3794
     36 O          19.0519   72.0453   -7.6919 O.3     1  UNL1       -0.3263
     37 H          15.7988   70.1814   -4.9101 H       1  UNL1        0.2105
     38 H          16.8331   68.8928   -7.8679 H       1  UNL1        0.2105
     39 C          18.4777   72.0342   -3.2086 C.2     1  UNL1        0.2231
     40 C          18.7506   72.5020   -1.8019 C.3     1  UNL1        0.0946
     41 N          18.2682   72.9333   -4.1894 N.am    1  UNL1       -0.2994
     42 O          18.4461   70.8479   -3.4576 O.2     1  UNL1       -0.2751
     43 H          18.2933   73.8826   -3.9904 H       1  UNL1        0.1496
     44 C          18.5576   70.1320   -9.0775 C.3     1  UNL1        0.1693
     45 O          18.2526   71.2024   -9.9737 O.3     1  UNL1       -0.3794
     46 H          18.1976   70.8188  -10.8594 H       1  UNL1        0.2105
@<TRIPOS>BOND
     1    29    30    1
     2    29    28    1
     3    29    36    1
     4    30    31    1
     5    30    41    1
     6    31    32    1
     7    31    34    1
     8    32    33    1
     9    32    35    1
    10    33    44    1
    11    33    36    1
    12    44    45    1
    13    39    40    1
    14    39    41   am
    15    39    42    2
    16    41    43    1
    17    28    25    1
    18    34    37    1
    19    35    38    1
    20    45    46    1
    21    15    16   ar
    22    15    20   ar
    23    15     6    1
    24    16    17   ar
    25    16    21    2
    26    17    18   ar
    27    17    23    1
    28    18    19   ar
    29    18    22    2
    30    19    20   ar
    31     6     7    1
    32     6    11    1
    33     7     8    1
    34     7     9    1
    35     8    13    1
    36     9    10    1
    37     9    12    1
    38    10    11    1
    39    10     5    1
    40    12    14    1
    41     5     4    1
    42     4     1    1
    43     1     2    2
    44     1     3    1
    45     1    24    1
    46    24    25    1
    47    25    26    2
    48    25    27    1
@<TRIPOS>MOLECULE
UD1
 46 48 0 0 0
SMALL
GASTEIGER

@<TRIPOS>ATOM
      1 P          21.7915   72.3139   -6.3105 P.3     1  UNL1        0.2189
      2 O          20.6296   73.2293   -6.3369 O.2     1  UNL1       -0.5170
      3 O          23.0899   73.0782   -6.8785 O.3     1  UNL1       -0.4371
      4 O          21.4821   71.0283   -7.2294 O.3     1  UNL1       -0.3112
      5 C          20.5174   71.4363   -8.2006 C.3     1  UNL1        0.1811
      6 C          17.3999   70.1881   -6.9160 C.3     1  UNL1        0.2383
      7 C          16.9904   71.1673   -8.0446 C.3     1  UNL1        0.1895
      8 O          15.7692   70.7561   -8.6600 O.3     1  UNL1       -0.3779
      9 C          18.1786   71.0400   -9.0331 C.3     1  UNL1        0.1713
     10 C          19.3252   70.4788   -8.1700 C.3     1  UNL1        0.1764
     11 O          18.8306   70.3565   -6.8255 O.3     1  UNL1       -0.3308
     12 O          17.8534   70.1376  -10.0927 O.3     1  UNL1       -0.3794
     13 H          15.5709   71.4045   -9.3497 H       1  UNL1        0.2106
     14 H          17.0939   70.5141  -10.5569 H       1  UNL1        0.2105
     15 N          16.7564   70.5526   -5.6533 N.ar    1  UNL1       -0.2551
     16 C          16.4715   69.5979   -4.7507 C.ar    1  UNL1        0.3323
     17 N          15.8835   69.9048   -3.5792 N.ar    1  UNL1       -0.2743
     18 C          15.5605   71.1826   -3.2952 C.ar    1  UNL1        0.2626
     19 C          15.8493   72.1969   -4.2390 C.ar    1  UNL1        0.0795
     20 C          16.4445   71.8620   -5.4039 C.ar    1  UNL1        0.0869
     21 O          16.7567   68.4408   -4.9922 O.2     1  UNL1       -0.2464
     22 O          15.0245   71.4606   -2.2385 O.2     1  UNL1       -0.2670
     23 H          15.6896   69.2040   -2.9377 H       1  UNL1        0.1734
     24 O          22.0662   71.8386   -4.7981 O.3     1  UNL1       -0.2703
     25 P          22.8541   73.0378   -4.0698 P.3     1  UNL1        0.2208
     26 O          22.3294   74.3354   -4.5491 O.2     1  UNL1       -0.5170
     27 O          24.4240   72.9352   -4.4120 O.3     1  UNL1       -0.4371
     28 O          22.6453   72.9298   -2.4775 O.3     1  UNL1       -0.2865
     29 C          21.4331   73.6209   -2.1706 C.3     1  UNL1        0.2611
     30 C          21.4757   74.0938   -0.7165 C.3     1  UNL1        0.1582
     31 C          21.6529   72.8786    0.2009 C.3     1  UNL1        0.1625
     32 C          20.5565   71.8576   -0.1209 C.3     1  UNL1        0.1686
     33 C          20.5853   71.5511   -1.6197 C.3     1  UNL1        0.1760
     34 O          21.5445   73.2887    1.5652 O.3     1  UNL1       -0.3801
     35 O          20.7893   70.6573    0.6184 O.3     1  UNL1       -0.3794
     36 O          20.3258   72.7428   -2.3607 O.3     1  UNL1       -0.3263
     37 H          21.6622   72.4954    2.1056 H       1  UNL1        0.2105
     38 H          20.0783   70.0433    0.3860 H       1  UNL1        0.2105
     39 C          23.7870   74.5515   -0.0978 C.2     1  UNL1        0.2231
     40 C          24.9434   75.4999    0.0909 C.3     1  UNL1        0.0946
     41 N          22.5996   75.0146   -0.5335 N.am    1  UNL1       -0.2994
     42 O          23.9253   73.3713    0.1432 O.2     1  UNL1       -0.2751
     43 H          22.4886   75.9591   -0.7262 H       1  UNL1        0.1496
     44 C          19.5149   70.5076   -1.9463 C.3     1  UNL1        0.1693
     45 O          18.2188   71.0864   -1.7812 O.3     1  UNL1       -0.3794
     46 H          17.5754   70.3975   -1.9959 H       1  UNL1        0.2105
@<TRIPOS>BOND
     1    29    30    1
     2    29    28    1
     3    29    36    1
     4    30    31    1
     5    30    41    1
     6    31    32    1
     7    31    34    1
     8    32    33    1
     9    32    35    1
    10    33    44    1
    11    33    36    1
    12    44    45    1
    13    39    40    1
    14    39    41   am
    15    39    42    2
    16    41    43    1
    17    28    25    1
    18    34    37    1
    19    35    38    1
    20    45    46    1
    21    15    16   ar
    22    15    20   ar
    23    15     6    1
    24    16    17   ar
    25    16    21    2
    26    17    18   ar
    27    17    23    1
    28    18    19   ar
    29    18    22    2
    30    19    20   ar
    31     6     7    1
    32     6    11    1
    33     7     8    1
    34     7     9    1
    35     8    13    1
    36     9    10    1
    37     9    12    1
    38    10    11    1
    39    10     5    1
    40    12    14    1
    41     5     4    1
    42     4     1    1
    43     1     2    2
    44     1     3    1
    45     1    24    1
    46    24    25    1
    47    25    26    2
    48    25    27    1
@<TRIPOS>MOLECULE
UD1
 46 48 0 0 0
SMALL
GASTEIGER

@<TRIPOS>ATOM
      1 P          16.0650   71.1503   -2.0539 P.3     1  UNL1        0.2189
      2 O          16.9111   72.3165   -1.7180 O.2     1  UNL1       -0.5170
      3 O          15.4742   71.3266   -3.5414 O.3     1  UNL1       -0.4371
      4 O          14.8491   71.0496   -1.0031 O.3     1  UNL1       -0.3112
      5 C          14.6682   69.6631   -0.7111 C.3     1  UNL1        0.1811
      6 C          11.9721   68.2091    1.1714 C.3     1  UNL1        0.2383
      7 C          12.1827   69.6048    1.8099 C.3     1  UNL1        0.1895
      8 O          10.9555   70.1212    2.3262 O.3     1  UNL1       -0.3779
      9 C          12.6719   70.4451    0.6016 C.3     1  UNL1        0.1713
     10 C          13.1955   69.3950   -0.3972 C.3     1  UNL1        0.1764
     11 O          13.0545   68.1052    0.2222 O.3     1  UNL1       -0.3308
     12 O          11.5885   71.1863    0.0362 O.3     1  UNL1       -0.3794
     13 H          11.1547   70.9872    2.7082 H       1  UNL1        0.2106
     14 H          11.2669   71.7813    0.7266 H       1  UNL1        0.2105
     15 N          12.0692   67.1555    2.1824 N.ar    1  UNL1       -0.2551
     16 C          13.2724   66.6489    2.5033 C.ar    1  UNL1        0.3323
     17 N          13.3920   65.6820    3.4323 N.ar    1  UNL1       -0.2743
     18 C          12.2977   65.1969    4.0529 C.ar    1  UNL1        0.2626
     19 C          11.0242   65.7170    3.7203 C.ar    1  UNL1        0.0795
     20 C          10.9335   66.6903    2.7888 C.ar    1  UNL1        0.0869
     21 O          14.2687   67.0761    1.9523 O.2     1  UNL1       -0.2464
     22 O          12.4041   64.3194    4.8895 O.2     1  UNL1       -0.2670
     23 H          14.2682   65.3315    3.6548 H       1  UNL1        0.1734
     24 O          16.9487   69.8076   -1.9821 O.3     1  UNL1       -0.2703
     25 P          17.1796   69.3214   -3.4985 P.3     1  UNL1        0.2208
     26 O          15.8992   68.8402   -4.0625 O.2     1  UNL1       -0.5170
     27 O          18.2580   68.1261   -3.5212 O.3     1  UNL1       -0.4371
     28 O          17.7258   70.5518   -4.3807 O.3     1  UNL1       -0.2865
     29 C          18.3488   69.9887   -5.5365 C.3     1  UNL1        0.2611
     30 C          19.7271   70.6242   -5.7274 C.3     1  UNL1        0.1582
     31 C          19.5626   72.1400   -5.8857 C.3     1  UNL1        0.1625
     32 C          18.5588   72.4090   -7.0119 C.3     1  UNL1        0.1686
     33 C          17.2674   71.6411   -6.7224 C.3     1  UNL1        0.1760
     34 O          20.8234   72.7269   -6.2132 O.3     1  UNL1       -0.3801
     35 O          18.2795   73.8087   -7.0788 O.3     1  UNL1       -0.3794
     36 O          17.5380   70.2406   -6.6821 O.3     1  UNL1       -0.3263
     37 H          20.6739   73.6782   -6.3029 H       1  UNL1        0.2105
     38 H          17.6445   73.9332   -7.7984 H       1  UNL1        0.2105
     39 C          20.6089   71.2140   -3.5345 C.2     1  UNL1        0.2231
     40 C          21.4703   70.9221   -2.3324 C.3     1  UNL1        0.0946
     41 N          20.5633   70.3409   -4.5592 N.am    1  UNL1       -0.2994
     42 O          19.9572   72.2355   -3.5798 O.2     1  UNL1       -0.2751
     43 H          21.0850   69.5235   -4.5233 H       1  UNL1        0.1496
     44 C          16.2463   71.9290   -7.8250 C.3     1  UNL1        0.1693
     45 O          16.0996   70.7732   -8.6524 O.3     1  UNL1       -0.3794
     46 H          15.4496   70.9965   -9.3324 H       1  UNL1        0.2105
@<TRIPOS>BOND
     1    29    30    1
     2    29    28    1
     3    29    36    1
     4    30    31    1
     5    30    41    1
     6    31    32    1
     7    31    34    1
     8    32    33    1
     9    32    35    1
    10    33    44    1
    11    33    36    1
    12    44    45    1
    13    39    40    1
    14    39    41   am
    15    39    42    2
    16    41    43    1
    17    28    25    1
    18    34    37    1
    19    35    38    1
    20    45    46    1
    21    15    16   ar
    22    15    20   ar
    23    15     6    1
    24    16    17   ar
    25    16    21    2
    26    17    18   ar
    27    17    23    1
    28    18    19   ar
    29    18    22    2
    30    19    20   ar
    31     6     7    1
    32     6    11    1
    33     7     8    1
    34     7     9    1
    35     8    13    1
    36     9    10    1
    37     9    12    1
    38    10    11    1
    39    10     5    1
    40    12    14    1
    41     5     4    1
    42     4     1    1
    43     1     2    2
    44     1     3    1
    45     1    24    1
    46    24    25    1
    47    25    26    2
    48    25    27    1
@<TRIPOS>MOLECULE
UD1
 46 48 0 0 0
SMALL
GASTEIGER

@<TRIPOS>ATOM
      1 P          21.3446   71.3746   -2.6144 P.3     1  UNL1        0.2189
      2 O          21.6802   70.7397   -1.3209 O.2     1  UNL1       -0.5170
      3 O          20.6747   72.8143   -2.3479 O.3     1  UNL1       -0.4371
      4 O          20.3064   70.4409   -3.4164 O.3     1  UNL1       -0.3112
      5 C          19.1512   70.3001   -2.5881 C.3     1  UNL1        0.1811
      6 C          17.2961   70.4483   -5.6644 C.3     1  UNL1        0.2383
      7 C          17.0929   68.9982   -5.1581 C.3     1  UNL1        0.1895
      8 O          15.8222   68.4885   -5.5637 O.3     1  UNL1       -0.3779
      9 C          17.1507   69.1797   -3.6189 C.3     1  UNL1        0.1713
     10 C          17.8911   70.5174   -3.4272 C.3     1  UNL1        0.1764
     11 O          18.2505   71.0005   -4.7329 O.3     1  UNL1       -0.3308
     12 O          15.8315   69.2480   -3.0733 O.3     1  UNL1       -0.3794
     13 H          15.7588   67.5871   -5.2189 H       1  UNL1        0.2106
     14 H          15.4010   68.4070   -3.2773 H       1  UNL1        0.2105
     15 N          17.8393   70.4526   -7.0233 N.ar    1  UNL1       -0.2551
     16 C          17.0024   70.4416   -8.0754 C.ar    1  UNL1        0.3323
     17 N          17.4740   70.4492   -9.3362 N.ar    1  UNL1       -0.2743
     18 C          18.8028   70.4587   -9.5647 C.ar    1  UNL1        0.2626
     19 C          19.6951   70.4643   -8.4662 C.ar    1  UNL1        0.0795
     20 C          19.1951   70.4619   -7.2119 C.ar    1  UNL1        0.0869
     21 O          15.8014   70.4330   -7.8855 O.2     1  UNL1       -0.2464
     22 O          19.2303   70.4608  -10.7042 O.2     1  UNL1       -0.2670
     23 H          16.8558   70.4459  -10.0833 H       1  UNL1        0.1734
     24 O          22.6847   71.5581   -3.4859 O.3     1  UNL1       -0.2703
     25 P          22.3954   72.7386   -4.5404 P.3     1  UNL1        0.2208
     26 O          20.9476   72.7876   -4.8409 O.2     1  UNL1       -0.5170
     27 O          23.2153   72.4597   -5.8976 O.3     1  UNL1       -0.4371
     28 O          22.8610   74.1460   -3.9135 O.3     1  UNL1       -0.2865
     29 C          24.1433   73.9318   -3.3209 C.3     1  UNL1        0.2611
     30 C          24.1627   74.5500   -1.9218 C.3     1  UNL1        0.1582
     31 C          23.8611   76.0488   -2.0319 C.3     1  UNL1        0.1625
     32 C          24.8377   76.6730   -3.0342 C.3     1  UNL1        0.1686
     33 C          24.7651   75.8964   -4.3505 C.3     1  UNL1        0.1760
     34 O          24.0232   76.6650   -0.7530 O.3     1  UNL1       -0.3801
     35 O          24.4811   78.0377   -3.2624 O.3     1  UNL1       -0.3794
     36 O          25.1472   74.5390   -4.1313 O.3     1  UNL1       -0.3263
     37 H          23.8238   77.6043   -0.8682 H       1  UNL1        0.2105
     38 H          25.1194   78.3910   -3.8982 H       1  UNL1        0.2105
     39 C          23.4131   73.6240    0.2030 C.2     1  UNL1        0.2231
     40 C          22.3673   72.9597    1.0617 C.3     1  UNL1        0.0946
     41 N          23.1470   73.9051   -1.0871 N.am    1  UNL1       -0.2994
     42 O          24.4947   73.9049    0.6734 O.2     1  UNL1       -0.2751
     43 H          22.2815   73.6801   -1.4639 H       1  UNL1        0.1496
     44 C          25.7134   76.5321   -5.3693 C.3     1  UNL1        0.1693
     45 O          25.3149   76.1580   -6.6897 O.3     1  UNL1       -0.3794
     46 H          25.9367   76.5780   -7.2992 H       1  UNL1        0.2105
@<TRIPOS>BOND
     1    29    30    1
     2    29    28    1
     3    29    36    1
     4    30    31    1
     5    30    41    1
     6    31    32    1
     7    31    34    1
     8    32    33    1
     9    32    35    1
    10    33    44    1
    11    33    36    1
    12    44    45    1
    13    39    40    1
    14    39    41   am
    15    39    42    2
    16    41    43    1
    17    28    25    1
    18    34    37    1
    19    35    38    1
    20    45    46    1
    21    15    16   ar
    22    15    20   ar
    23    15     6    1
    24    16    17   ar
    25    16    21    2
    26    17    18   ar
    27    17    23    1
    28    18    19   ar
    29    18    22    2
    30    19    20   ar
    31     6     7    1
    32     6    11    1
    33     7     8    1
    34     7     9    1
    35     8    13    1
    36     9    10    1
    37     9    12    1
    38    10    11    1
    39    10     5    1
    40    12    14    1
    41     5     4    1
    42     4     1    1
    43     1     2    2
    44     1     3    1
    45     1    24    1
    46    24    25    1
    47    25    26    2
    48    25    27    1
@<TRIPOS>MOLECULE
UD1
 46 48 0 0 0
SMALL
GASTEIGER

@<TRIPOS>ATOM
      1 P          21.2921   71.2644   -0.3083 P.3     1  UNL1        0.2189
      2 O          22.5372   71.0962   -1.0893 O.2     1  UNL1       -0.5170
      3 O          21.4362   70.5017    1.1024 O.3     1  UNL1       -0.4371
      4 O          20.0554   70.6415   -1.1302 O.3     1  UNL1       -0.3112
      5 C          20.0902   71.2233   -2.4343 C.3     1  UNL1        0.1811
      6 C          17.7920   70.7119   -5.1516 C.3     1  UNL1        0.2383
      7 C          17.9111   69.3222   -4.4772 C.3     1  UNL1        0.1895
      8 O          16.6958   68.5841   -4.6095 O.3     1  UNL1       -0.3779
      9 C          18.1704   69.7004   -2.9957 C.3     1  UNL1        0.1713
     10 C          18.6991   71.1461   -3.0654 C.3     1  UNL1        0.1764
     11 O          18.7715   71.5106   -4.4543 O.3     1  UNL1       -0.3308
     12 O          16.9561   69.6407   -2.2442 O.3     1  UNL1       -0.3794
     13 H          16.8357   67.7332   -4.1714 H       1  UNL1        0.2106
     14 H          16.6452   68.7266   -2.2881 H       1  UNL1        0.2105
     15 N          18.1148   70.6271   -6.5764 N.ar    1  UNL1       -0.2551
     16 C          17.1276   70.4667   -7.4749 C.ar    1  UNL1        0.3323
     17 N          17.3949   70.3896   -8.7920 N.ar    1  UNL1       -0.2743
     18 C          18.6670   70.4633   -9.2326 C.ar    1  UNL1        0.2626
     19 C          19.7165   70.6262   -8.2972 C.ar    1  UNL1        0.0795
     20 C          19.4197   70.7060   -6.9823 C.ar    1  UNL1        0.0869
     21 O          15.9752   70.3986   -7.0930 O.2     1  UNL1       -0.2464
     22 O          18.9103   70.3889  -10.4229 O.2     1  UNL1       -0.2670
     23 H          16.6701   70.2787   -9.4264 H       1  UNL1        0.1734
     24 O          21.0290   72.8303   -0.0484 O.3     1  UNL1       -0.2703
     25 P          20.9604   73.0317    1.5467 P.3     1  UNL1        0.2208
     26 O          20.5777   71.7550    2.1889 O.2     1  UNL1       -0.5170
     27 O          19.8657   74.1583    1.8995 O.3     1  UNL1       -0.4371
     28 O          22.4015   73.4962    2.0926 O.3     1  UNL1       -0.2865
     29 C          22.6137   72.8174    3.3318 C.3     1  UNL1        0.2611
     30 C          23.1219   73.8155    4.3737 C.3     1  UNL1        0.1582
     31 C          24.4263   74.4444    3.8709 C.3     1  UNL1        0.1625
     32 C          25.4052   73.3216    3.5117 C.3     1  UNL1        0.1686
     33 C          24.7256   72.3623    2.5323 C.3     1  UNL1        0.1760
     34 O          24.9888   75.2647    4.8966 O.3     1  UNL1       -0.3801
     35 O          26.5714   73.8805    2.9040 O.3     1  UNL1       -0.3794
     36 O          23.5757   71.7813    3.1459 O.3     1  UNL1       -0.3263
     37 H          25.8052   75.6395    4.5383 H       1  UNL1        0.2105
     38 H          27.1590   73.1409    2.6937 H       1  UNL1        0.2105
     39 C          21.3212   74.8299    5.6632 C.2     1  UNL1        0.2231
     40 C          20.2890   75.9081    5.8734 C.3     1  UNL1        0.0946
     41 N          22.1194   74.8629    4.5787 N.am    1  UNL1       -0.2994
     42 O          21.4330   73.9319    6.4702 O.2     1  UNL1       -0.2751
     43 H          22.0300   75.5814    3.9326 H       1  UNL1        0.1496
     44 C          25.7063   71.2547    2.1418 C.3     1  UNL1        0.1693
     45 O          25.1531   69.9837    2.4894 O.3     1  UNL1       -0.3794
     46 H          25.8008   69.3155    2.2275 H       1  UNL1        0.2105
@<TRIPOS>BOND
     1    29    30    1
     2    29    28    1
     3    29    36    1
     4    30    31    1
     5    30    41    1
     6    31    32    1
     7    31    34    1
     8    32    33    1
     9    32    35    1
    10    33    44    1
    11    33    36    1
    12    44    45    1
    13    39    40    1
    14    39    41   am
    15    39    42    2
    16    41    43    1
    17    28    25    1
    18    34    37    1
    19    35    38    1
    20    45    46    1
    21    15    16   ar
    22    15    20   ar
    23    15     6    1
    24    16    17   ar
    25    16    21    2
    26    17    18   ar
    27    17    23    1
    28    18    19   ar
    29    18    22    2
    30    19    20   ar
    31     6     7    1
    32     6    11    1
    33     7     8    1
    34     7     9    1
    35     8    13    1
    36     9    10    1
    37     9    12    1
    38    10    11    1
    39    10     5    1
    40    12    14    1
    41     5     4    1
    42     4     1    1
    43     1     2    2
    44     1     3    1
    45     1    24    1
    46    24    25    1
    47    25    26    2
    48    25    27    1
@<TRIPOS>MOLECULE
UD1
 46 48 0 0 0
SMALL
GASTEIGER

@<TRIPOS>ATOM
      1 P          13.4358   72.5749   -2.1549 P.3     1  UNL1        0.2189
      2 O          13.0970   72.7834   -3.5799 O.2     1  UNL1       -0.5170
      3 O          13.0219   73.8804   -1.3083 O.3     1  UNL1       -0.4371
      4 O          15.0199   72.3237   -2.0117 O.3     1  UNL1       -0.3112
      5 C          15.5676   72.3729   -3.3300 C.3     1  UNL1        0.1811
      6 C          17.3541   70.0586   -5.4227 C.3     1  UNL1        0.2383
      7 C          18.3967   70.5165   -4.3722 C.3     1  UNL1        0.1895
      8 O          19.3427   69.4805   -4.1056 O.3     1  UNL1       -0.3779
      9 C          17.5092   70.7886   -3.1298 C.3     1  UNL1        0.1713
     10 C          16.0981   70.9910   -3.7148 C.3     1  UNL1        0.1764
     11 O          16.2073   70.8901   -5.1449 O.3     1  UNL1       -0.3308
     12 O          17.5339   69.6686   -2.2423 O.3     1  UNL1       -0.3794
     13 H          19.9606   69.8279   -3.4476 H       1  UNL1        0.2106
     14 H          18.4511   69.5575   -1.9584 H       1  UNL1        0.2105
     15 N          17.8464   70.2951   -6.7803 N.ar    1  UNL1       -0.2551
     16 C          16.9880   70.2675   -7.8146 C.ar    1  UNL1        0.3323
     17 N          17.4122   70.4854   -9.0735 N.ar    1  UNL1       -0.2743
     18 C          18.7157   70.7273   -9.3190 C.ar    1  UNL1        0.2626
     19 C          19.6312   70.7533   -8.2401 C.ar    1  UNL1        0.0795
     20 C          19.1779   70.5367   -6.9867 C.ar    1  UNL1        0.0869
     21 O          15.8092   70.0507   -7.6093 O.2     1  UNL1       -0.2464
     22 O          19.1011   70.9198  -10.4573 O.2     1  UNL1       -0.2670
     23 H          16.7783   70.4665   -9.8070 H       1  UNL1        0.1734
     24 O          12.6370   71.2954   -1.5950 O.3     1  UNL1       -0.2703
     25 P          13.4565   70.7575   -0.3189 P.3     1  UNL1        0.2208
     26 O          13.7938   71.8945    0.5656 O.2     1  UNL1       -0.5170
     27 O          14.8119   70.0427   -0.8131 O.3     1  UNL1       -0.4371
     28 O          12.5564   69.6968    0.4904 O.3     1  UNL1       -0.2865
     29 C          12.9104   68.3994    0.0080 C.3     1  UNL1        0.2611
     30 C          11.6393   67.5755   -0.2049 C.3     1  UNL1        0.1582
     31 C          10.8815   67.4708    1.1234 C.3     1  UNL1        0.1625
     32 C          11.8376   66.9300    2.1918 C.3     1  UNL1        0.1686
     33 C          13.0927   67.8046    2.2260 C.3     1  UNL1        0.1760
     34 O           9.7733   66.5815    0.9736 O.3     1  UNL1       -0.3801
     35 O          11.1958   66.9625    3.4680 O.3     1  UNL1       -0.3794
     36 O          13.7512   67.7527    0.9611 O.3     1  UNL1       -0.3263
     37 H           9.3260   66.5457    1.8303 H       1  UNL1        0.2105
     38 H          11.8316   66.6152    4.1097 H       1  UNL1        0.2105
     39 C           9.8290   69.0885   -0.8117 C.2     1  UNL1        0.2231
     40 C           8.9565   69.7631   -1.8393 C.3     1  UNL1        0.0946
     41 N          10.7917   68.2315   -1.2028 N.am    1  UNL1       -0.2994
     42 O           9.6640   69.3167    0.3676 O.2     1  UNL1       -0.2751
     43 H          10.9239   68.0485   -2.1465 H       1  UNL1        0.1496
     44 C          14.0403   67.2923    3.3126 C.3     1  UNL1        0.1693
     45 O          13.6130   67.7794    4.5863 O.3     1  UNL1       -0.3794
     46 H          14.2354   67.4347    5.2409 H       1  UNL1        0.2105
@<TRIPOS>BOND
     1    29    30    1
     2    29    28    1
     3    29    36    1
     4    30    31    1
     5    30    41    1
     6    31    32    1
     7    31    34    1
     8    32    33    1
     9    32    35    1
    10    33    44    1
    11    33    36    1
    12    44    45    1
    13    39    40    1
    14    39    41   am
    15    39    42    2
    16    41    43    1
    17    28    25    1
    18    34    37    1
    19    35    38    1
    20    45    46    1
    21    15    16   ar
    22    15    20   ar
    23    15     6    1
    24    16    17   ar
    25    16    21    2
    26    17    18   ar
    27    17    23    1
    28    18    19   ar
    29    18    22    2
    30    19    20   ar
    31     6     7    1
    32     6    11    1
    33     7     8    1
    34     7     9    1
    35     8    13    1
    36     9    10    1
    37     9    12    1
    38    10    11    1
    39    10     5    1
    40    12    14    1
    41     5     4    1
    42     4     1    1
    43     1     2    2
    44     1     3    1
    45     1    24    1
    46    24    25    1
    47    25    26    2
    48    25    27    1
