@<TRIPOS>MOLECULE
*****
 43 45 0 0 0
SMALL
GASTEIGER

@<TRIPOS>ATOM
      1 P          22.9978   71.5407   -2.5748 P.3     1  UNL1        0.2189
      2 O          23.2437   73.0578   -2.0696 O.co2   1  UNL1       -0.4371
      3 O          24.2103   70.8535   -3.1307 O.2     1  UNL1       -0.5170
      4 O          21.7376   71.6661   -3.5818 O.3     1  UNL1       -0.3112
      5 C          20.8669   70.5564   -3.7167 C.3     1  UNL1        0.1811
      6 O          18.9444   71.6509   -4.6546 O.3     1  UNL1       -0.3308
      7 O          17.3740   70.3834   -2.4369 O.3     1  UNL1       -0.3794
      8 O          16.8135   68.7676   -4.5609 O.3     1  UNL1       -0.3779
      9 C          18.4809   69.8623   -3.1707 C.3     1  UNL1        0.1713
     10 C          18.0453   69.4599   -4.5643 C.3     1  UNL1        0.1895
     11 C          19.4380   71.0128   -3.4564 C.3     1  UNL1        0.1764
     12 C          17.9587   70.8038   -5.2676 C.3     1  UNL1        0.2383
     13 H          16.7491   69.6668   -2.2424 H       1  UNL1        0.2105
     14 H          16.9203   67.9196   -4.1024 H       1  UNL1        0.2106
     15 O          16.0416   70.1363   -7.2316 O.2     1  UNL1       -0.2464
     16 O          19.1411   70.4549  -10.6276 O.2     1  UNL1       -0.2670
     17 N          18.2372   70.7055   -6.6727 N.ar    1  UNL1       -0.2551
     18 N          17.5864   70.2956   -8.9210 N.ar    1  UNL1       -0.2743
     19 C          17.2037   70.3626   -7.5752 C.ar    1  UNL1        0.3323
     20 C          19.5233   70.9482   -7.1428 C.ar    1  UNL1        0.0869
     21 C          19.8723   70.8789   -8.4292 C.ar    1  UNL1        0.0795
     22 C          18.8516   70.5268   -9.4373 C.ar    1  UNL1        0.2626
     23 H          16.8830   70.0581   -9.5679 H       1  UNL1        0.1734
     24 O          22.3551   70.8248   -1.2759 O.3     1  UNL1       -0.2703
     25 P          21.7950   71.4429    0.1088 P.3     1  UNL1        0.2208
     26 O          21.2721   70.1397    0.9122 O.co2   1  UNL1       -0.4371
     27 O          20.7608   72.5163   -0.0704 O.2     1  UNL1       -0.5170
     28 O          23.1151   71.9131    0.9097 O.3     1  UNL1       -0.2858
     29 O          24.6806   71.3593    2.6005 O.3     1  UNL1       -0.3258
     30 O          22.7991   74.5317    4.4570 O.3     1  UNL1       -0.3794
     31 O          25.4678   74.8595    3.4476 O.3     1  UNL1       -0.3794
     32 O          21.2558   72.6638    2.8730 O.3     1  UNL1       -0.3775
     33 C          23.3271   73.7971    3.3492 C.3     1  UNL1        0.1715
     34 C          24.8260   73.5941    3.5791 C.3     1  UNL1        0.1694
     35 C          22.6104   72.4514    3.2556 C.3     1  UNL1        0.1967
     36 C          25.4098   72.5919    2.5743 C.3     1  UNL1        0.1761
     37 C          23.3001   71.5119    2.2647 C.3     1  UNL1        0.2704
     38 H          23.2496   75.3875    4.5217 H       1  UNL1        0.2105
     39 H          25.0897   75.4832    4.0873 H       1  UNL1        0.2105
     40 H          20.8302   73.2598    3.5083 H       1  UNL1        0.2106
     41 O          27.1450   70.9606    2.3817 O.3     1  UNL1       -0.3794
     42 C          26.8669   72.2548    2.8835 C.3     1  UNL1        0.1693
     43 H          28.0691   70.7327    2.5710 H       1  UNL1        0.2105
@<TRIPOS>UNITY_ATOM_ATTR
2 1
charge -1
26 1
charge -1
@<TRIPOS>BOND
     1    25    28    1
     2    25    24    1
     3    25    26    1
     4    25    27    2
     5     1     4    1
     6     1    24    1
     7     1     2    1
     8     1     3    2
     9     6    11    1
    10     6    12    1
    11    29    36    1
    12    29    37    1
    13     7     9    1
    14     7    13    1
    15     8    10    1
    16     8    14    1
    17    28    37    1
    18     4     5    1
    19    30    33    1
    20    30    38    1
    21    31    34    1
    22    31    39    1
    23    32    35    1
    24    32    40    1
    25    41    42    1
    26    41    43    1
    27    15    19    2
    28    16    22    2
    29    17    12    1
    30    17    19   ar
    31    17    20   ar
    32    18    19   ar
    33    18    22   ar
    34    18    23    1
    35     9    10    1
    36     9    11    1
    37    10    12    1
    38    11     5    1
    39    33    34    1
    40    33    35    1
    41    34    36    1
    42    35    37    1
    43    36    42    1
    44    20    21   ar
    45    21    22   ar
@<TRIPOS>MOLECULE
*****
 43 45 0 0 0
SMALL
GASTEIGER

@<TRIPOS>ATOM
      1 P          23.1947   72.1016   -2.5150 P.3     1  UNL1        0.2189
      2 O          23.6653   73.5528   -1.9765 O.co2   1  UNL1       -0.4371
      3 O          23.9497   71.5928   -3.7077 O.2     1  UNL1       -0.5170
      4 O          21.5963   72.2593   -2.7101 O.3     1  UNL1       -0.3112
      5 C          20.9141   71.3023   -3.5017 C.3     1  UNL1        0.1811
      6 O          18.7534   71.8398   -4.4051 O.3     1  UNL1       -0.3308
      7 O          17.6136   70.2874   -2.1069 O.3     1  UNL1       -0.3794
      8 O          17.4329   68.5135   -4.1703 O.3     1  UNL1       -0.3779
      9 C          18.7986   70.0416   -2.8623 C.3     1  UNL1        0.1713
     10 C          18.4464   69.4963   -4.2305 C.3     1  UNL1        0.1895
     11 C          19.4227   71.3880   -3.2075 C.3     1  UNL1        0.1764
     12 C          18.0022   70.7500   -4.9647 C.3     1  UNL1        0.2383
     13 H          17.1974   69.4420   -1.8744 H       1  UNL1        0.2105
     14 H          17.7640   67.7361   -3.6940 H       1  UNL1        0.2106
     15 O          16.2275   69.6406   -6.8614 O.2     1  UNL1       -0.2464
     16 O          19.1056   70.5340  -10.3485 O.2     1  UNL1       -0.2670
     17 N          18.2623   70.6800   -6.3750 N.ar    1  UNL1       -0.2551
     18 N          17.6620   70.0865   -8.5962 N.ar    1  UNL1       -0.2743
     19 C          17.3055   70.1022   -7.2417 C.ar    1  UNL1        0.3323
     20 C          19.4548   71.1811   -6.8854 C.ar    1  UNL1        0.0869
     21 C          19.7802   71.1573   -8.1796 C.ar    1  UNL1        0.0795
     22 C          18.8355   70.5708   -9.1520 C.ar    1  UNL1        0.2626
     23 H          17.0110   69.6885   -9.2187 H       1  UNL1        0.1734
     24 O          23.3098   71.1706   -1.1986 O.3     1  UNL1       -0.2703
     25 P          22.4227   71.1275    0.1520 P.3     1  UNL1        0.2208
     26 O          23.2847   70.1710    1.1317 O.co2   1  UNL1       -0.4371
     27 O          21.0043   70.6822   -0.0573 O.2     1  UNL1       -0.5170
     28 O          22.5736   72.6035    0.7872 O.3     1  UNL1       -0.2858
     29 O          24.4409   74.0276    1.1058 O.3     1  UNL1       -0.3258
     30 O          22.4709   74.7155    4.6691 O.3     1  UNL1       -0.3794
     31 O          22.4902   76.7514    2.6436 O.3     1  UNL1       -0.3794
     32 O          22.5216   72.0513    3.5381 O.3     1  UNL1       -0.3775
     33 C          22.5743   74.4442    3.2687 C.3     1  UNL1        0.1715
     34 C          23.3297   75.6006    2.6107 C.3     1  UNL1        0.1694
     35 C          23.3249   73.1289    3.0691 C.3     1  UNL1        0.1967
     36 C          23.7132   75.2600    1.1643 C.3     1  UNL1        0.1761
     37 C          23.7015   72.9104    1.6026 C.3     1  UNL1        0.2704
     38 H          21.9949   75.5492    4.8028 H       1  UNL1        0.2105
     39 H          22.2550   76.9554    3.5624 H       1  UNL1        0.2105
     40 H          22.2902   72.2013    4.4675 H       1  UNL1        0.2106
     41 O          25.0019   75.8947   -0.7449 O.3     1  UNL1       -0.3794
     42 C          24.6026   76.3333    0.5406 C.3     1  UNL1        0.1693
     43 H          25.5684   76.5681   -1.1541 H       1  UNL1        0.2105
@<TRIPOS>UNITY_ATOM_ATTR
2 1
charge -1
26 1
charge -1
@<TRIPOS>BOND
     1    25    28    1
     2    25    24    1
     3    25    26    1
     4    25    27    2
     5     1     4    1
     6     1    24    1
     7     1     2    1
     8     1     3    2
     9     6    11    1
    10     6    12    1
    11    29    36    1
    12    29    37    1
    13     7     9    1
    14     7    13    1
    15     8    10    1
    16     8    14    1
    17    28    37    1
    18     4     5    1
    19    30    33    1
    20    30    38    1
    21    31    34    1
    22    31    39    1
    23    32    35    1
    24    32    40    1
    25    41    42    1
    26    41    43    1
    27    15    19    2
    28    16    22    2
    29    17    12    1
    30    17    19   ar
    31    17    20   ar
    32    18    19   ar
    33    18    22   ar
    34    18    23    1
    35     9    10    1
    36     9    11    1
    37    10    12    1
    38    11     5    1
    39    33    34    1
    40    33    35    1
    41    34    36    1
    42    35    37    1
    43    36    42    1
    44    20    21   ar
    45    21    22   ar
@<TRIPOS>MOLECULE
*****
 43 45 0 0 0
SMALL
GASTEIGER

@<TRIPOS>ATOM
      1 P          22.9112   71.5258   -2.6665 P.3     1  UNL1        0.2189
      2 O          23.0549   73.0871   -2.2674 O.co2   1  UNL1       -0.4371
      3 O          24.1566   70.8951   -3.2168 O.2     1  UNL1       -0.5170
      4 O          21.6177   71.4907   -3.6378 O.3     1  UNL1       -0.3112
      5 C          20.7713   70.3550   -3.5958 C.3     1  UNL1        0.1811
      6 O          18.8754   71.4895   -4.5403 O.3     1  UNL1       -0.3308
      7 O          17.2510   70.1653   -2.3958 O.3     1  UNL1       -0.3794
      8 O          16.7267   68.6182   -4.5794 O.3     1  UNL1       -0.3779
      9 C          18.3703   69.6597   -3.1217 C.3     1  UNL1        0.1713
     10 C          17.9622   69.3026   -4.5357 C.3     1  UNL1        0.1895
     11 C          19.3397   70.8124   -3.3519 C.3     1  UNL1        0.1764
     12 C          17.8982   70.6677   -5.1995 C.3     1  UNL1        0.2383
     13 H          16.6180   69.4471   -2.2365 H       1  UNL1        0.2105
     14 H          16.8189   67.7560   -4.1448 H       1  UNL1        0.2106
     15 O          16.0064   70.1364   -7.2284 O.2     1  UNL1       -0.2464
     16 O          19.1931   70.4707  -10.5412 O.2     1  UNL1       -0.2670
     17 N          18.2060   70.6103   -6.6007 N.ar    1  UNL1       -0.2551
     18 N          17.5946   70.3035   -8.8763 N.ar    1  UNL1       -0.2743
     19 C          17.1830   70.3353   -7.5378 C.ar    1  UNL1        0.3323
     20 C          19.5100   70.8257   -7.0331 C.ar    1  UNL1        0.0869
     21 C          19.8865   70.7906   -8.3131 C.ar    1  UNL1        0.0795
     22 C          18.8785   70.5098   -9.3557 C.ar    1  UNL1        0.2626
     23 H          16.8990   70.1133   -9.5469 H       1  UNL1        0.1734
     24 O          22.3611   70.8516   -1.3043 O.3     1  UNL1       -0.2703
     25 P          21.5971   71.4963   -0.0340 P.3     1  UNL1        0.2208
     26 O          21.3199   70.2191    0.9196 O.co2   1  UNL1       -0.4371
     27 O          20.3683   72.2824   -0.3890 O.2     1  UNL1       -0.5170
     28 O          22.7329   72.3434    0.7389 O.3     1  UNL1       -0.2858
     29 O          21.8863   73.8682    2.3436 O.3     1  UNL1       -0.3258
     30 O          25.7721   75.2456    2.1102 O.3     1  UNL1       -0.3794
     31 O          24.9137   73.8124    4.4462 O.3     1  UNL1       -0.3794
     32 O          24.4129   74.3460   -0.2820 O.3     1  UNL1       -0.3775
     33 C          24.7369   74.2589    2.1031 C.3     1  UNL1        0.1715
     34 C          24.0192   74.3070    3.4535 C.3     1  UNL1        0.1694
     35 C          23.7638   74.5645    0.9659 C.3     1  UNL1        0.1967
     36 C          22.7335   73.4696    3.4277 C.3     1  UNL1        0.1761
     37 C          22.4975   73.7115    1.0615 C.3     1  UNL1        0.2704
     38 H          26.3937   75.0570    2.8297 H       1  UNL1        0.2105
     39 H          25.7215   74.3495    4.4518 H       1  UNL1        0.2105
     40 H          25.2127   74.8917   -0.3303 H       1  UNL1        0.2106
     41 O          22.4080   72.7080    5.6689 O.3     1  UNL1       -0.3794
     42 C          21.9210   73.6295    4.7108 C.3     1  UNL1        0.1693
     43 H          21.9003   72.7986    6.4909 H       1  UNL1        0.2105
@<TRIPOS>UNITY_ATOM_ATTR
2 1
charge -1
26 1
charge -1
@<TRIPOS>BOND
     1    25    28    1
     2    25    24    1
     3    25    26    1
     4    25    27    2
     5     1     4    1
     6     1    24    1
     7     1     2    1
     8     1     3    2
     9     6    11    1
    10     6    12    1
    11    29    36    1
    12    29    37    1
    13     7     9    1
    14     7    13    1
    15     8    10    1
    16     8    14    1
    17    28    37    1
    18     4     5    1
    19    30    33    1
    20    30    38    1
    21    31    34    1
    22    31    39    1
    23    32    35    1
    24    32    40    1
    25    41    42    1
    26    41    43    1
    27    15    19    2
    28    16    22    2
    29    17    12    1
    30    17    19   ar
    31    17    20   ar
    32    18    19   ar
    33    18    22   ar
    34    18    23    1
    35     9    10    1
    36     9    11    1
    37    10    12    1
    38    11     5    1
    39    33    34    1
    40    33    35    1
    41    34    36    1
    42    35    37    1
    43    36    42    1
    44    20    21   ar
    45    21    22   ar
@<TRIPOS>MOLECULE
*****
 43 45 0 0 0
SMALL
GASTEIGER

@<TRIPOS>ATOM
      1 P          23.4207   72.0596   -3.3736 P.3     1  UNL1        0.2189
      2 O          24.1584   72.9134   -4.5330 O.co2   1  UNL1       -0.4371
      3 O          24.0797   70.7562   -3.0298 O.2     1  UNL1       -0.5170
      4 O          21.8876   71.9595   -3.8808 O.3     1  UNL1       -0.3112
      5 C          21.1739   70.7586   -3.6435 C.3     1  UNL1        0.1811
      6 O          19.1184   71.6738   -4.4867 O.3     1  UNL1       -0.3308
      7 O          17.7821   70.3166   -2.1709 O.3     1  UNL1       -0.3794
      8 O          17.2453   68.6251   -4.2415 O.3     1  UNL1       -0.3779
      9 C          18.8876   69.8774   -2.9585 C.3     1  UNL1        0.1713
     10 C          18.4127   69.4174   -4.3210 C.3     1  UNL1        0.1895
     11 C          19.7278   71.0988   -3.3101 C.3     1  UNL1        0.1764
     12 C          18.1757   70.7377   -5.0344 C.3     1  UNL1        0.2383
     13 H          17.2309   69.5538   -1.9337 H       1  UNL1        0.2105
     14 H          17.4476   67.7966   -3.7795 H       1  UNL1        0.2106
     15 O          16.2289   69.8489   -6.8777 O.2     1  UNL1       -0.2464
     16 O          19.0915   70.4021  -10.4471 O.2     1  UNL1       -0.2670
     17 N          18.3852   70.6399   -6.4514 N.ar    1  UNL1       -0.2551
     18 N          17.6558   70.1252   -8.6535 N.ar    1  UNL1       -0.2743
     19 C          17.3425   70.1806   -7.2894 C.ar    1  UNL1        0.3323
     20 C          19.6135   70.9975   -6.9966 C.ar    1  UNL1        0.0869
     21 C          19.8967   70.9377   -8.2995 C.ar    1  UNL1        0.0795
     22 C          18.8620   70.4685   -9.2435 C.ar    1  UNL1        0.2626
     23 H          16.9448   69.8079   -9.2565 H       1  UNL1        0.1734
     24 O          23.3305   73.1113   -2.1493 O.3     1  UNL1       -0.2703
     25 P          23.2084   72.8762   -0.5547 P.3     1  UNL1        0.2208
     26 O          21.6190   72.6741   -0.3301 O.co2   1  UNL1       -0.4371
     27 O          23.8174   73.9678    0.2767 O.2     1  UNL1       -0.5170
     28 O          23.8442   71.4134   -0.3076 O.3     1  UNL1       -0.2858
     29 O          24.8340   71.5601    1.8408 O.3     1  UNL1       -0.3258
     30 O          20.8827   72.1340    2.8940 O.3     1  UNL1       -0.3794
     31 O          22.7064   74.3513    2.9683 O.3     1  UNL1       -0.3794
     32 O          21.5628   70.2316    0.8209 O.3     1  UNL1       -0.3775
     33 C          22.0372   72.2436    2.0570 C.3     1  UNL1        0.1715
     34 C          23.1215   72.9952    2.8317 C.3     1  UNL1        0.1694
     35 C          22.5171   70.8426    1.6825 C.3     1  UNL1        0.1967
     36 C          24.4725   72.9202    2.1074 C.3     1  UNL1        0.1761
     37 C          23.8916   70.8769    1.0119 C.3     1  UNL1        0.2704
     38 H          20.5726   73.0201    3.1350 H       1  UNL1        0.2105
     39 H          21.8520   74.3846    3.4267 H       1  UNL1        0.2105
     40 H          20.6971   70.2157    1.2569 H       1  UNL1        0.2106
     41 O          26.6539   72.5843    3.0226 O.3     1  UNL1       -0.3794
     42 C          25.6011   73.5271    2.9380 C.3     1  UNL1        0.1693
     43 H          27.3795   72.9571    3.5482 H       1  UNL1        0.2105
@<TRIPOS>UNITY_ATOM_ATTR
2 1
charge -1
26 1
charge -1
@<TRIPOS>BOND
     1    25    28    1
     2    25    24    1
     3    25    26    1
     4    25    27    2
     5     1     4    1
     6     1    24    1
     7     1     2    1
     8     1     3    2
     9     6    11    1
    10     6    12    1
    11    29    36    1
    12    29    37    1
    13     7     9    1
    14     7    13    1
    15     8    10    1
    16     8    14    1
    17    28    37    1
    18     4     5    1
    19    30    33    1
    20    30    38    1
    21    31    34    1
    22    31    39    1
    23    32    35    1
    24    32    40    1
    25    41    42    1
    26    41    43    1
    27    15    19    2
    28    16    22    2
    29    17    12    1
    30    17    19   ar
    31    17    20   ar
    32    18    19   ar
    33    18    22   ar
    34    18    23    1
    35     9    10    1
    36     9    11    1
    37    10    12    1
    38    11     5    1
    39    33    34    1
    40    33    35    1
    41    34    36    1
    42    35    37    1
    43    36    42    1
    44    20    21   ar
    45    21    22   ar
@<TRIPOS>MOLECULE
*****
 43 45 0 0 0
SMALL
GASTEIGER

@<TRIPOS>ATOM
      1 P          22.9638   71.5834   -2.7648 P.3     1  UNL1        0.2189
      2 O          23.1529   73.1899   -2.7959 O.co2   1  UNL1       -0.4371
      3 O          24.2362   70.7936   -2.8589 O.2     1  UNL1       -0.5170
      4 O          21.8724   71.2982   -3.9248 O.3     1  UNL1       -0.3112
      5 C          21.6503   72.2976   -4.9045 C.3     1  UNL1        0.1811
      6 O          20.5813   70.4595   -6.0237 O.3     1  UNL1       -0.3308
      7 O          20.9078   72.0489   -8.5453 O.3     1  UNL1       -0.3794
      8 O          18.2907   72.4753   -7.9086 O.3     1  UNL1       -0.3779
      9 C          20.6232   72.5029   -7.2231 C.3     1  UNL1        0.1713
     10 C          19.1883   72.1868   -6.8560 C.3     1  UNL1        0.1895
     11 C          21.4011   71.6273   -6.2487 C.3     1  UNL1        0.1764
     12 C          19.2632   70.7023   -6.5419 C.3     1  UNL1        0.2383
     13 H          20.4223   72.5933   -9.1855 H       1  UNL1        0.2105
     14 H          18.2785   73.4315   -8.0704 H       1  UNL1        0.2106
     15 O          16.6182   69.9119   -7.1398 O.2     1  UNL1       -0.2464
     16 O          15.6366   69.1833   -2.6961 O.2     1  UNL1       -0.2670
     17 N          18.2951   70.3006   -5.5606 N.ar    1  UNL1       -0.2551
     18 N          16.1317   69.5496   -4.9267 N.ar    1  UNL1       -0.2743
     19 C          16.9936   69.9232   -5.9657 C.ar    1  UNL1        0.3323
     20 C          18.6400   70.2834   -4.2135 C.ar    1  UNL1        0.0869
     21 C          17.8059   69.9259   -3.2349 C.ar    1  UNL1        0.0795
     22 C          16.4272   69.5174   -3.5731 C.ar    1  UNL1        0.2626
     23 H          15.2195   69.2831   -5.1851 H       1  UNL1        0.1734
     24 O          22.1215   71.3427   -1.4063 O.3     1  UNL1       -0.2703
     25 P          22.6030   71.2022    0.1304 P.3     1  UNL1        0.2208
     26 O          24.2124   71.0931    0.0065 O.co2   1  UNL1       -0.4371
     27 O          21.9609   70.0677    0.8751 O.2     1  UNL1       -0.5170
     28 O          22.3415   72.6585    0.7752 O.3     1  UNL1       -0.2858
     29 O          23.6863   74.0248    2.1685 O.3     1  UNL1       -0.3258
     30 O          20.0010   74.7646    3.8778 O.3     1  UNL1       -0.3794
     31 O          21.2672   76.8031    2.3002 O.3     1  UNL1       -0.3794
     32 O          20.6522   72.1024    2.9460 O.3     1  UNL1       -0.3775
     33 C          20.9100   74.4932    2.8076 C.3     1  UNL1        0.1715
     34 C          21.9351   75.6275    2.7498 C.3     1  UNL1        0.1694
     35 C          21.6017   73.1562    3.0671 C.3     1  UNL1        0.1967
     36 C          23.0950   75.2785    1.8075 C.3     1  UNL1        0.1761
     37 C          22.7708   72.9294    2.1070 C.3     1  UNL1        0.2704
     38 H          19.5581   75.6120    3.7190 H       1  UNL1        0.2105
     39 H          20.5368   77.0123    2.9035 H       1  UNL1        0.2105
     40 H          19.9174   72.2575    3.5590 H       1  UNL1        0.2106
     41 O          23.8361   77.4106    1.0241 O.3     1  UNL1       -0.3794
     42 C          24.2055   76.3256    1.8552 C.3     1  UNL1        0.1693
     43 H          24.5335   78.0851    1.0448 H       1  UNL1        0.2105
@<TRIPOS>UNITY_ATOM_ATTR
2 1
charge -1
26 1
charge -1
@<TRIPOS>BOND
     1    25    28    1
     2    25    24    1
     3    25    26    1
     4    25    27    2
     5     1     4    1
     6     1    24    1
     7     1     2    1
     8     1     3    2
     9     6    11    1
    10     6    12    1
    11    29    36    1
    12    29    37    1
    13     7     9    1
    14     7    13    1
    15     8    10    1
    16     8    14    1
    17    28    37    1
    18     4     5    1
    19    30    33    1
    20    30    38    1
    21    31    34    1
    22    31    39    1
    23    32    35    1
    24    32    40    1
    25    41    42    1
    26    41    43    1
    27    15    19    2
    28    16    22    2
    29    17    12    1
    30    17    19   ar
    31    17    20   ar
    32    18    19   ar
    33    18    22   ar
    34    18    23    1
    35     9    10    1
    36     9    11    1
    37    10    12    1
    38    11     5    1
    39    33    34    1
    40    33    35    1
    41    34    36    1
    42    35    37    1
    43    36    42    1
    44    20    21   ar
    45    21    22   ar
@<TRIPOS>MOLECULE
*****
 43 45 0 0 0
SMALL
GASTEIGER

@<TRIPOS>ATOM
      1 P          21.3573   72.7156   -4.6779 P.3     1  UNL1        0.2189
      2 O          21.4762   74.2928   -4.3373 O.co2   1  UNL1       -0.4371
      3 O          22.0365   72.2881   -5.9457 O.2     1  UNL1       -0.5170
      4 O          19.7686   72.4196   -4.5975 O.3     1  UNL1       -0.3112
      5 C          19.3069   71.4549   -3.6680 C.3     1  UNL1        0.1811
      6 O          17.4004   71.7381   -5.1029 O.3     1  UNL1       -0.3308
      7 O          15.9029   70.0412   -3.1361 O.3     1  UNL1       -0.3794
      8 O          16.4646   68.2761   -5.1374 O.3     1  UNL1       -0.3779
      9 C          17.2618   69.9452   -3.5596 C.3     1  UNL1        0.1713
     10 C          17.3371   69.3733   -4.9599 C.3     1  UNL1        0.1895
     11 C          17.7904   71.3594   -3.7647 C.3     1  UNL1        0.1764
     12 C          16.9505   70.5712   -5.8106 C.3     1  UNL1        0.2383
     13 H          15.5436   69.1502   -2.9982 H       1  UNL1        0.2105
     14 H          16.7523   67.5398   -4.5754 H       1  UNL1        0.2106
     15 O          15.5360   70.6449   -8.2543 O.2     1  UNL1       -0.2464
     16 O          19.4245   70.4631  -10.7215 O.2     1  UNL1       -0.2670
     17 N          17.5681   70.5448   -7.1065 N.ar    1  UNL1       -0.2551
     18 N          17.4733   70.5545   -9.4808 N.ar    1  UNL1       -0.2743
     19 C          16.7671   70.5850   -8.2715 C.ar    1  UNL1        0.3323
     20 C          18.9532   70.4801   -7.2129 C.ar    1  UNL1        0.0869
     21 C          19.6112   70.4505   -8.3736 C.ar    1  UNL1        0.0795
     22 C          18.8487   70.4890   -9.6382 C.ar    1  UNL1        0.2626
     23 H          16.9361   70.5812  -10.3057 H       1  UNL1        0.1734
     24 O          21.9264   72.0108   -3.3391 O.3     1  UNL1       -0.2703
     25 P          23.4172   71.9638   -2.7159 P.3     1  UNL1        0.2208
     26 O          24.0668   73.3636   -3.2017 O.co2   1  UNL1       -0.4371
     27 O          24.2075   70.7472   -3.1021 O.2     1  UNL1       -0.5170
     28 O          23.2014   72.1444   -1.1266 O.3     1  UNL1       -0.2858
     29 O          24.1390   70.7676    0.5592 O.3     1  UNL1       -0.3258
     30 O          20.6787   71.9186    2.4963 O.3     1  UNL1       -0.3794
     31 O          23.2019   73.0027    3.3367 O.3     1  UNL1       -0.3794
     32 O          20.6251   71.3550   -0.3425 O.3     1  UNL1       -0.3775
     33 C          21.8027   72.0850    1.6277 C.3     1  UNL1        0.1715
     34 C          23.0777   71.8933    2.4512 C.3     1  UNL1        0.1694
     35 C          21.7254   71.0494    0.5074 C.3     1  UNL1        0.1967
     36 C          24.3123   71.7918    1.5453 C.3     1  UNL1        0.1761
     37 C          23.0220   70.9956   -0.3024 C.3     1  UNL1        0.2704
     38 H          20.7215   72.5735    3.2096 H       1  UNL1        0.2105
     39 H          22.4158   73.0557    3.9028 H       1  UNL1        0.2105
     40 H          19.8103   71.3858    0.1819 H       1  UNL1        0.2106
     41 O          26.1098   72.6371    2.8733 O.3     1  UNL1       -0.3794
     42 C          25.5730   71.4434    2.3336 C.3     1  UNL1        0.1693
     43 H          26.9126   72.4307    3.3779 H       1  UNL1        0.2105
@<TRIPOS>UNITY_ATOM_ATTR
2 1
charge -1
26 1
charge -1
@<TRIPOS>BOND
     1    25    28    1
     2    25    24    1
     3    25    26    1
     4    25    27    2
     5     1     4    1
     6     1    24    1
     7     1     2    1
     8     1     3    2
     9     6    11    1
    10     6    12    1
    11    29    36    1
    12    29    37    1
    13     7     9    1
    14     7    13    1
    15     8    10    1
    16     8    14    1
    17    28    37    1
    18     4     5    1
    19    30    33    1
    20    30    38    1
    21    31    34    1
    22    31    39    1
    23    32    35    1
    24    32    40    1
    25    41    42    1
    26    41    43    1
    27    15    19    2
    28    16    22    2
    29    17    12    1
    30    17    19   ar
    31    17    20   ar
    32    18    19   ar
    33    18    22   ar
    34    18    23    1
    35     9    10    1
    36     9    11    1
    37    10    12    1
    38    11     5    1
    39    33    34    1
    40    33    35    1
    41    34    36    1
    42    35    37    1
    43    36    42    1
    44    20    21   ar
    45    21    22   ar
@<TRIPOS>MOLECULE
*****
 43 45 0 0 0
SMALL
GASTEIGER

@<TRIPOS>ATOM
      1 P          21.4189   71.5856   -2.4135 P.3     1  UNL1        0.2189
      2 O          21.2592   72.4967   -3.7408 O.co2   1  UNL1       -0.4371
      3 O          22.6973   70.8045   -2.3311 O.2     1  UNL1       -0.5170
      4 O          20.0578   70.7116   -2.3763 O.3     1  UNL1       -0.3112
      5 C          19.4983   70.2789   -3.6041 C.3     1  UNL1        0.1811
      6 O          17.8145   71.3950   -4.9051 O.3     1  UNL1       -0.3308
      7 O          15.8106   69.9867   -3.1754 O.3     1  UNL1       -0.3794
      8 O          15.7961   68.4807   -5.4488 O.3     1  UNL1       -0.3779
      9 C          17.0699   69.5221   -3.6588 C.3     1  UNL1        0.1713
     10 C          16.9770   69.1898   -5.1334 C.3     1  UNL1        0.1895
     11 C          18.0362   70.7001   -3.6585 C.3     1  UNL1        0.1764
     12 C          17.0188   70.5684   -5.7703 C.3     1  UNL1        0.2383
     13 H          15.1769   69.2517   -3.1662 H       1  UNL1        0.2105
     14 H          15.8171   67.6106   -5.0206 H       1  UNL1        0.2106
     15 O          15.5618   70.5533   -8.1900 O.2     1  UNL1       -0.2464
     16 O          19.4129   70.4983  -10.7214 O.2     1  UNL1       -0.2670
     17 N          17.6153   70.5506   -7.0762 N.ar    1  UNL1       -0.2551
     18 N          17.4805   70.5261   -9.4485 N.ar    1  UNL1       -0.2743
     19 C          16.7940   70.5433   -8.2277 C.ar    1  UNL1        0.3323
     20 C          18.9998   70.5409   -7.2056 C.ar    1  UNL1        0.0869
     21 C          19.6391   70.5232   -8.3771 C.ar    1  UNL1        0.0795
     22 C          18.8546   70.5146   -9.6287 C.ar    1  UNL1        0.2626
     23 H          16.9290   70.5203  -10.2643 H       1  UNL1        0.1734
     24 O          21.2012   72.6481   -1.2149 O.3     1  UNL1       -0.2703
     25 P          20.8321   72.4294    0.3436 P.3     1  UNL1        0.2208
     26 O          20.7950   70.8189    0.4936 O.co2   1  UNL1       -0.4371
     27 O          19.5735   73.1213    0.7808 O.2     1  UNL1       -0.5170
     28 O          22.1577   72.8830    1.1449 O.3     1  UNL1       -0.2858
     29 O          24.0077   74.2861    0.6705 O.3     1  UNL1       -0.3258
     30 O          26.0157   71.0908    2.3466 O.3     1  UNL1       -0.3794
     31 O          25.7715   73.5432    3.8211 O.3     1  UNL1       -0.3794
     32 O          23.7359   70.6215    0.6255 O.3     1  UNL1       -0.3775
     33 C          24.9319   72.0105    2.1881 C.3     1  UNL1        0.1715
     34 C          25.4624   73.4241    2.4353 C.3     1  UNL1        0.1694
     35 C          24.3742   71.8855    0.7715 C.3     1  UNL1        0.1967
     36 C          24.4300   74.4828    2.0251 C.3     1  UNL1        0.1761
     37 C          23.3942   73.0148    0.4486 C.3     1  UNL1        0.2704
     38 H          26.3740   71.1648    3.2442 H       1  UNL1        0.2105
     39 H          26.4240   72.8688    4.0672 H       1  UNL1        0.2105
     40 H          24.3668   69.9150    0.8324 H       1  UNL1        0.2106
     41 O          26.4086   75.8158    2.1565 O.3     1  UNL1       -0.3794
     42 C          24.9959   75.8984    2.1148 C.3     1  UNL1        0.1693
     43 H          26.7826   76.7094    2.2134 H       1  UNL1        0.2105
@<TRIPOS>UNITY_ATOM_ATTR
2 1
charge -1
26 1
charge -1
@<TRIPOS>BOND
     1    25    28    1
     2    25    24    1
     3    25    26    1
     4    25    27    2
     5     1     4    1
     6     1    24    1
     7     1     2    1
     8     1     3    2
     9     6    11    1
    10     6    12    1
    11    29    36    1
    12    29    37    1
    13     7     9    1
    14     7    13    1
    15     8    10    1
    16     8    14    1
    17    28    37    1
    18     4     5    1
    19    30    33    1
    20    30    38    1
    21    31    34    1
    22    31    39    1
    23    32    35    1
    24    32    40    1
    25    41    42    1
    26    41    43    1
    27    15    19    2
    28    16    22    2
    29    17    12    1
    30    17    19   ar
    31    17    20   ar
    32    18    19   ar
    33    18    22   ar
    34    18    23    1
    35     9    10    1
    36     9    11    1
    37    10    12    1
    38    11     5    1
    39    33    34    1
    40    33    35    1
    41    34    36    1
    42    35    37    1
    43    36    42    1
    44    20    21   ar
    45    21    22   ar
@<TRIPOS>MOLECULE
*****
 43 45 0 0 0
SMALL
GASTEIGER

@<TRIPOS>ATOM
      1 P          23.2231   73.2372   -3.4910 P.3     1  UNL1        0.2189
      2 O          23.8267   74.3206   -2.4520 O.co2   1  UNL1       -0.4371
      3 O          24.2471   72.4015   -4.2012 O.2     1  UNL1       -0.5170
      4 O          22.2482   74.1117   -4.4412 O.3     1  UNL1       -0.3112
      5 C          21.0459   73.5206   -4.9029 C.3     1  UNL1        0.1811
      6 O          20.8437   71.2196   -5.5648 O.3     1  UNL1       -0.3308
      7 O          21.4978   72.1545   -8.3377 O.3     1  UNL1       -0.3794
      8 O          18.7890   71.8551   -8.4349 O.3     1  UNL1       -0.3779
      9 C          20.7324   72.8037   -7.3238 C.3     1  UNL1        0.1713
     10 C          19.3777   72.1416   -7.1827 C.3     1  UNL1        0.1895
     11 C          21.3785   72.4959   -5.9787 C.3     1  UNL1        0.1764
     12 C          19.7203   70.8872   -6.3970 C.3     1  UNL1        0.2383
     13 H          21.1045   72.3368   -9.2060 H       1  UNL1        0.2105
     14 H          18.5897   72.6847   -8.8961 H       1  UNL1        0.2106
     15 O          17.3736   69.6414   -7.3554 O.2     1  UNL1       -0.2464
     16 O          15.6264   69.2520   -3.1084 O.2     1  UNL1       -0.2670
     17 N          18.6361   70.4496   -5.5637 N.ar    1  UNL1       -0.2551
     18 N          16.5056   69.4484   -5.2399 N.ar    1  UNL1       -0.2743
     19 C          17.5020   69.8359   -6.1449 C.ar    1  UNL1        0.3323
     20 C          18.7040   70.6301   -4.1865 C.ar    1  UNL1        0.0869
     21 C          17.7446   70.2561   -3.3374 C.ar    1  UNL1        0.0795
     22 C          16.5262   69.6073   -3.8633 C.ar    1  UNL1        0.2626
     23 H          15.7060   69.0190   -5.6220 H       1  UNL1        0.1734
     24 O          22.1850   72.3983   -2.5792 O.3     1  UNL1       -0.2703
     25 P          21.2768   72.8462   -1.3192 P.3     1  UNL1        0.2208
     26 O          20.1668   71.6728   -1.2261 O.co2   1  UNL1       -0.4371
     27 O          20.7066   74.2303   -1.4327 O.2     1  UNL1       -0.5170
     28 O          22.2224   72.6158   -0.0317 O.3     1  UNL1       -0.2858
     29 O          22.9851   70.9197    1.4374 O.3     1  UNL1       -0.3258
     30 O          21.2502   73.4529    4.1985 O.3     1  UNL1       -0.3794
     31 O          24.1120   73.2621    4.0512 O.3     1  UNL1       -0.3794
     32 O          19.9962   73.0501    1.6207 O.3     1  UNL1       -0.3775
     33 C          21.9654   73.1187    3.0059 C.3     1  UNL1        0.1715
     34 C          23.2281   72.3515    3.4031 C.3     1  UNL1        0.1694
     35 C          21.0727   72.2592    2.1128 C.3     1  UNL1        0.1967
     36 C          23.9075   71.7294    2.1757 C.3     1  UNL1        0.1761
     37 C          21.8572   71.6491    0.9498 C.3     1  UNL1        0.2704
     38 H          21.8113   73.9991    4.7698 H       1  UNL1        0.2105
     39 H          23.6708   73.6482    4.8241 H       1  UNL1        0.2105
     40 H          19.5073   73.4304    2.3665 H       1  UNL1        0.2106
     41 O          25.7986   70.4972    1.3921 O.3     1  UNL1       -0.3794
     42 C          25.0785   70.8298    2.5648 C.3     1  UNL1        0.1693
     43 H          26.5472   69.9250    1.6244 H       1  UNL1        0.2105
@<TRIPOS>UNITY_ATOM_ATTR
2 1
charge -1
26 1
charge -1
@<TRIPOS>BOND
     1    25    28    1
     2    25    24    1
     3    25    26    1
     4    25    27    2
     5     1     4    1
     6     1    24    1
     7     1     2    1
     8     1     3    2
     9     6    11    1
    10     6    12    1
    11    29    36    1
    12    29    37    1
    13     7     9    1
    14     7    13    1
    15     8    10    1
    16     8    14    1
    17    28    37    1
    18     4     5    1
    19    30    33    1
    20    30    38    1
    21    31    34    1
    22    31    39    1
    23    32    35    1
    24    32    40    1
    25    41    42    1
    26    41    43    1
    27    15    19    2
    28    16    22    2
    29    17    12    1
    30    17    19   ar
    31    17    20   ar
    32    18    19   ar
    33    18    22   ar
    34    18    23    1
    35     9    10    1
    36     9    11    1
    37    10    12    1
    38    11     5    1
    39    33    34    1
    40    33    35    1
    41    34    36    1
    42    35    37    1
    43    36    42    1
    44    20    21   ar
    45    21    22   ar
@<TRIPOS>MOLECULE
*****
 43 45 0 0 0
SMALL
GASTEIGER

@<TRIPOS>ATOM
      1 P          23.4130   72.4508   -3.6321 P.3     1  UNL1        0.2189
      2 O          24.0698   71.0146   -3.2808 O.co2   1  UNL1       -0.4371
      3 O          24.3828   73.4916   -4.1092 O.2     1  UNL1       -0.5170
      4 O          22.5736   72.8298   -2.3018 O.3     1  UNL1       -0.3112
      5 C          21.7290   73.9671   -2.3364 C.3     1  UNL1        0.1811
      6 O          20.9403   72.6541   -0.4850 O.3     1  UNL1       -0.3308
      7 O          19.1157   74.9536    0.1265 O.3     1  UNL1       -0.3794
      8 O          21.1307   75.2973    1.9316 O.3     1  UNL1       -0.3779
      9 C          20.4495   74.9700   -0.3793 C.3     1  UNL1        0.1713
     10 C          21.4336   74.6334    0.7215 C.3     1  UNL1        0.1895
     11 C          20.6086   73.7836   -1.3219 C.3     1  UNL1        0.1764
     12 C          21.2829   73.1254    0.8285 C.3     1  UNL1        0.2383
     13 H          18.9900   75.7025    0.7309 H       1  UNL1        0.2105
     14 H          21.2414   76.2535    1.8123 H       1  UNL1        0.2106
     15 O          21.5672   70.3393    1.1959 O.2     1  UNL1       -0.2464
     16 O          25.9776   70.7714    2.4620 O.2     1  UNL1       -0.2670
     17 N          22.4945   72.4827    1.2533 N.ar    1  UNL1       -0.2551
     18 N          23.7630   70.5567    1.8259 N.ar    1  UNL1       -0.2743
     19 C          22.5316   71.0773    1.4081 C.ar    1  UNL1        0.3323
     20 C          23.6292   73.2441    1.5111 C.ar    1  UNL1        0.0869
     21 C          24.7955   72.7325    1.9101 C.ar    1  UNL1        0.0795
     22 C          24.9188   71.2723    2.0961 C.ar    1  UNL1        0.2626
     23 H          23.8124   69.5800    1.9409 H       1  UNL1        0.1734
     24 O          22.2564   72.0712   -4.6956 O.3     1  UNL1       -0.2703
     25 P          21.6020   72.9250   -5.9022 P.3     1  UNL1        0.2208
     26 O          22.4767   72.4801   -7.1885 O.co2   1  UNL1       -0.4371
     27 O          21.5669   74.4061   -5.6594 O.2     1  UNL1       -0.5170
     28 O          20.1547   72.2518   -6.1409 O.3     1  UNL1       -0.2858
     29 O          19.2878   70.1029   -5.6437 O.3     1  UNL1       -0.3258
     30 O          17.5713   70.6639   -9.3572 O.3     1  UNL1       -0.3794
     31 O          15.9334   70.8038   -7.0022 O.3     1  UNL1       -0.3794
     32 O          20.2731   71.5777   -8.8624 O.3     1  UNL1       -0.3775
     33 C          18.0567   71.0629   -8.0724 C.3     1  UNL1        0.1715
     34 C          17.2674   70.3031   -7.0044 C.3     1  UNL1        0.1694
     35 C          19.5453   70.7335   -7.9769 C.3     1  UNL1        0.1967
     36 C          17.9045   70.4737   -5.6187 C.3     1  UNL1        0.1761
     37 C          20.0674   70.8886   -6.5474 C.3     1  UNL1        0.2704
     38 H          16.6268   70.8707   -9.4246 H       1  UNL1        0.2105
     39 H          15.5428   70.6906   -7.8830 H       1  UNL1        0.2105
     40 H          19.9333   71.4700   -9.7639 H       1  UNL1        0.2106
     41 O          16.0085   70.2125   -4.1884 O.3     1  UNL1       -0.3794
     42 C          17.2271   69.5988   -4.5662 C.3     1  UNL1        0.1693
     43 H          15.5661   69.6665   -3.5191 H       1  UNL1        0.2105
@<TRIPOS>UNITY_ATOM_ATTR
2 1
charge -1
26 1
charge -1
@<TRIPOS>BOND
     1    25    28    1
     2    25    24    1
     3    25    26    1
     4    25    27    2
     5     1     4    1
     6     1    24    1
     7     1     2    1
     8     1     3    2
     9     6    11    1
    10     6    12    1
    11    29    36    1
    12    29    37    1
    13     7     9    1
    14     7    13    1
    15     8    10    1
    16     8    14    1
    17    28    37    1
    18     4     5    1
    19    30    33    1
    20    30    38    1
    21    31    34    1
    22    31    39    1
    23    32    35    1
    24    32    40    1
    25    41    42    1
    26    41    43    1
    27    15    19    2
    28    16    22    2
    29    17    12    1
    30    17    19   ar
    31    17    20   ar
    32    18    19   ar
    33    18    22   ar
    34    18    23    1
    35     9    10    1
    36     9    11    1
    37    10    12    1
    38    11     5    1
    39    33    34    1
    40    33    35    1
    41    34    36    1
    42    35    37    1
    43    36    42    1
    44    20    21   ar
    45    21    22   ar
@<TRIPOS>MOLECULE
*****
 43 45 0 0 0
SMALL
GASTEIGER

@<TRIPOS>ATOM
      1 P          20.2002   72.1961   -4.8930 P.3     1  UNL1        0.2189
      2 O          19.5354   71.1959   -3.8091 O.co2   1  UNL1       -0.4371
      3 O          19.4261   73.4551   -5.1520 O.2     1  UNL1       -0.5170
      4 O          20.4610   71.2538   -6.1823 O.3     1  UNL1       -0.3112
      5 C          20.0128   71.7025   -7.4494 C.3     1  UNL1        0.1811
      6 O          18.5813   69.8021   -7.1137 O.3     1  UNL1       -0.3308
      7 O          17.8934   70.0422  -10.0223 O.3     1  UNL1       -0.3794
      8 O          15.7414   71.1934   -8.8055 O.3     1  UNL1       -0.3779
      9 C          18.1553   71.0709   -9.0692 C.3     1  UNL1        0.1713
     10 C          16.9802   71.2260   -8.1265 C.3     1  UNL1        0.1895
     11 C          19.2508   70.5757   -8.1333 C.3     1  UNL1        0.1764
     12 C          17.1667   70.0418   -7.1932 C.3     1  UNL1        0.2383
     13 H          17.1970   70.3356  -10.6314 H       1  UNL1        0.2105
     14 H          15.6705   71.9669   -9.3864 H       1  UNL1        0.2106
     15 O          16.5642   68.0384   -5.2955 O.2     1  UNL1       -0.2464
     16 O          15.2367   71.1477   -2.1632 O.2     1  UNL1       -0.2670
     17 N          16.6625   70.2996   -5.8738 N.ar    1  UNL1       -0.2551
     18 N          15.9038   69.5882   -3.7373 N.ar    1  UNL1       -0.2743
     19 C          16.3914   69.2223   -4.9984 C.ar    1  UNL1        0.3323
     20 C          16.4423   71.6087   -5.4597 C.ar    1  UNL1        0.0869
     21 C          15.9757   71.9408   -4.2542 C.ar    1  UNL1        0.0795
     22 C          15.6670   70.8747   -3.2794 C.ar    1  UNL1        0.2626
     23 H          15.7075   68.8543   -3.1107 H       1  UNL1        0.1734
     24 O          21.6884   72.4300   -4.3070 O.3     1  UNL1       -0.2703
     25 P          22.9892   73.1313   -4.9621 P.3     1  UNL1        0.2208
     26 O          23.1320   72.3867   -6.3913 O.co2   1  UNL1       -0.4371
     27 O          24.2201   73.0673   -4.1048 O.2     1  UNL1       -0.5170
     28 O          22.5061   74.6271   -5.3282 O.3     1  UNL1       -0.2858
     29 O          24.1799   75.3412   -6.8464 O.3     1  UNL1       -0.3258
     30 O          21.6630   78.6081   -7.0546 O.3     1  UNL1       -0.3794
     31 O          21.8029   76.7827   -9.2673 O.3     1  UNL1       -0.3794
     32 O          22.1029   77.2836   -4.5185 O.3     1  UNL1       -0.3775
     33 C          21.9909   77.2222   -6.9237 C.3     1  UNL1        0.1715
     34 C          22.7329   76.7836   -8.1878 C.3     1  UNL1        0.1694
     35 C          22.8714   77.0319   -5.6901 C.3     1  UNL1        0.1967
     36 C          23.3495   75.3892   -8.0125 C.3     1  UNL1        0.1761
     37 C          23.4737   75.6267   -5.6374 C.3     1  UNL1        0.2704
     38 H          21.1036   78.7358   -7.8358 H       1  UNL1        0.2105
     39 H          21.4205   77.6687   -9.3670 H       1  UNL1        0.2105
     40 H          21.7273   78.1762   -4.5639 H       1  UNL1        0.2106
     41 O          24.0052   73.6297   -9.4900 O.3     1  UNL1       -0.3794
     42 C          24.2256   74.9978   -9.2005 C.3     1  UNL1        0.1693
     43 H          24.5561   73.3666  -10.2443 H       1  UNL1        0.2105
@<TRIPOS>UNITY_ATOM_ATTR
2 1
charge -1
26 1
charge -1
@<TRIPOS>BOND
     1    25    28    1
     2    25    24    1
     3    25    26    1
     4    25    27    2
     5     1     4    1
     6     1    24    1
     7     1     2    1
     8     1     3    2
     9     6    11    1
    10     6    12    1
    11    29    36    1
    12    29    37    1
    13     7     9    1
    14     7    13    1
    15     8    10    1
    16     8    14    1
    17    28    37    1
    18     4     5    1
    19    30    33    1
    20    30    38    1
    21    31    34    1
    22    31    39    1
    23    32    35    1
    24    32    40    1
    25    41    42    1
    26    41    43    1
    27    15    19    2
    28    16    22    2
    29    17    12    1
    30    17    19   ar
    31    17    20   ar
    32    18    19   ar
    33    18    22   ar
    34    18    23    1
    35     9    10    1
    36     9    11    1
    37    10    12    1
    38    11     5    1
    39    33    34    1
    40    33    35    1
    41    34    36    1
    42    35    37    1
    43    36    42    1
    44    20    21   ar
    45    21    22   ar
@<TRIPOS>MOLECULE
*****
 43 45 0 0 0
SMALL
GASTEIGER

@<TRIPOS>ATOM
      1 P          20.2780   71.8391   -2.2818 P.3     1  UNL1        0.2189
      2 O          20.0326   70.6660   -1.1951 O.co2   1  UNL1       -0.4371
      3 O          20.2162   73.2343   -1.7330 O.2     1  UNL1       -0.5170
      4 O          19.2247   71.5013   -3.4626 O.3     1  UNL1       -0.3112
      5 C          18.2941   72.4993   -3.8444 C.3     1  UNL1        0.1811
      6 O          16.5835   71.8645   -5.4079 O.3     1  UNL1       -0.3308
      7 O          15.5289   70.0785   -3.2425 O.3     1  UNL1       -0.3794
      8 O          16.8805   68.3348   -4.8456 O.3     1  UNL1       -0.3779
      9 C          16.8800   70.4026   -3.5666 C.3     1  UNL1        0.1713
     10 C          17.3051   69.6825   -4.8293 C.3     1  UNL1        0.1895
     11 C          16.9207   71.8616   -4.0034 C.3     1  UNL1        0.1764
     12 C          16.6385   70.5186   -5.9084 C.3     1  UNL1        0.2383
     13 H          15.4778   69.1513   -2.9603 H       1  UNL1        0.2105
     14 H          17.3326   67.8447   -4.1412 H       1  UNL1        0.2106
     15 O          15.4584   70.6327   -8.4721 O.2     1  UNL1       -0.2464
     16 O          19.5600   70.4749  -10.5680 O.2     1  UNL1       -0.2670
     17 N          17.3743   70.5093   -7.1412 N.ar    1  UNL1       -0.2551
     18 N          17.5017   70.5542   -9.5136 N.ar    1  UNL1       -0.2743
     19 C          16.6857   70.5691   -8.3752 C.ar    1  UNL1        0.3323
     20 C          18.7631   70.4417   -7.1188 C.ar    1  UNL1        0.0869
     21 C          19.5266   70.4270   -8.2134 C.ar    1  UNL1        0.0795
     22 C          18.8856   70.4867   -9.5429 C.ar    1  UNL1        0.2626
     23 H          17.0439   70.5947  -10.3846 H       1  UNL1        0.1734
     24 O          21.6998   71.4362   -2.9368 O.3     1  UNL1       -0.2703
     25 P          23.2124   71.6701   -2.4171 P.3     1  UNL1        0.2208
     26 O          23.4410   73.2559   -2.6422 O.co2   1  UNL1       -0.4371
     27 O          24.2345   70.7962   -3.0845 O.2     1  UNL1       -0.5170
     28 O          23.1257   71.4942   -0.8150 O.3     1  UNL1       -0.2858
     29 O          22.9731   73.5280    0.3920 O.3     1  UNL1       -0.3258
     30 O          23.8667   70.9746    3.5117 O.3     1  UNL1       -0.3794
     31 O          21.2123   72.0444    3.2708 O.3     1  UNL1       -0.3794
     32 O          25.1308   70.6030    0.9343 O.3     1  UNL1       -0.3775
     33 C          23.2710   71.3536    2.2680 C.3     1  UNL1        0.1715
     34 C          22.3268   72.5293    2.5271 C.3     1  UNL1        0.1694
     35 C          24.3726   71.7545    1.2886 C.3     1  UNL1        0.1967
     36 C          21.8561   73.1622    1.2107 C.3     1  UNL1        0.1761
     37 C          23.7998   72.4184    0.0351 C.3     1  UNL1        0.2704
     38 H          23.1726   70.7185    4.1380 H       1  UNL1        0.2105
     39 H          21.5233   71.6468    4.0993 H       1  UNL1        0.2105
     40 H          25.4883   70.1920    1.7363 H       1  UNL1        0.2106
     41 O          21.1238   74.7715    2.8178 O.3     1  UNL1       -0.3794
     42 C          21.0408   74.4319    1.4459 C.3     1  UNL1        0.1693
     43 H          20.6097   75.5780    2.9823 H       1  UNL1        0.2105
@<TRIPOS>UNITY_ATOM_ATTR
2 1
charge -1
26 1
charge -1
@<TRIPOS>BOND
     1    25    28    1
     2    25    24    1
     3    25    26    1
     4    25    27    2
     5     1     4    1
     6     1    24    1
     7     1     2    1
     8     1     3    2
     9     6    11    1
    10     6    12    1
    11    29    36    1
    12    29    37    1
    13     7     9    1
    14     7    13    1
    15     8    10    1
    16     8    14    1
    17    28    37    1
    18     4     5    1
    19    30    33    1
    20    30    38    1
    21    31    34    1
    22    31    39    1
    23    32    35    1
    24    32    40    1
    25    41    42    1
    26    41    43    1
    27    15    19    2
    28    16    22    2
    29    17    12    1
    30    17    19   ar
    31    17    20   ar
    32    18    19   ar
    33    18    22   ar
    34    18    23    1
    35     9    10    1
    36     9    11    1
    37    10    12    1
    38    11     5    1
    39    33    34    1
    40    33    35    1
    41    34    36    1
    42    35    37    1
    43    36    42    1
    44    20    21   ar
    45    21    22   ar
@<TRIPOS>MOLECULE
*****
 43 45 0 0 0
SMALL
GASTEIGER

@<TRIPOS>ATOM
      1 P          23.1642   72.3637   -3.3022 P.3     1  UNL1        0.2189
      2 O          24.0119   70.9940   -3.1516 O.co2   1  UNL1       -0.4371
      3 O          23.9895   73.6020   -3.4942 O.2     1  UNL1       -0.5170
      4 O          22.1902   72.3617   -2.0102 O.3     1  UNL1       -0.3112
      5 C          22.6584   72.9513   -0.8097 C.3     1  UNL1        0.1811
      6 O          22.8656   71.5084    1.1004 O.3     1  UNL1       -0.3308
      7 O          20.3212   72.7540    2.0829 O.3     1  UNL1       -0.3794
      8 O          22.2222   74.0560    3.5414 O.3     1  UNL1       -0.3779
      9 C          21.3995   73.3513    1.3648 C.3     1  UNL1        0.1713
     10 C          22.5930   73.5481    2.2760 C.3     1  UNL1        0.1895
     11 C          21.9255   72.3252    0.3688 C.3     1  UNL1        0.1764
     12 C          23.1644   72.1426    2.3548 C.3     1  UNL1        0.2383
     13 H          19.9686   73.3906    2.7250 H       1  UNL1        0.2105
     14 H          21.8648   74.9518    3.4384 H       1  UNL1        0.2106
     15 O          24.7893   69.8361    2.2211 O.2     1  UNL1       -0.2464
     16 O          28.6086   72.2509    3.1282 O.2     1  UNL1       -0.2670
     17 N          24.5866   72.1398    2.5516 N.ar    1  UNL1       -0.2551
     18 N          26.6897   71.0404    2.6727 N.ar    1  UNL1       -0.2743
     19 C          25.3093   70.9271    2.4641 C.ar    1  UNL1        0.3323
     20 C          25.2504   73.3302    2.8275 C.ar    1  UNL1        0.0869
     21 C          26.5671   73.4211    3.0252 C.ar    1  UNL1        0.0795
     22 C          27.3954   72.2002    2.9511 C.ar    1  UNL1        0.2626
     23 H          27.2136   70.2084    2.6170 H       1  UNL1        0.1734
     24 O          22.1533   72.0335   -4.5196 O.3     1  UNL1       -0.2703
     25 P          21.5167   72.9871   -5.6591 P.3     1  UNL1        0.2208
     26 O          22.4750   72.7289   -6.9369 O.co2   1  UNL1       -0.4371
     27 O          21.3948   74.4286   -5.2577 O.2     1  UNL1       -0.5170
     28 O          20.1188   72.2807   -6.0487 O.3     1  UNL1       -0.2858
     29 O          19.3596   70.0944   -5.5385 O.3     1  UNL1       -0.3258
     30 O          17.6439   70.5350   -9.2685 O.3     1  UNL1       -0.3794
     31 O          15.9837   70.6106   -6.9263 O.3     1  UNL1       -0.3794
     32 O          20.2915   71.5905   -8.7632 O.3     1  UNL1       -0.3775
     33 C          18.0988   70.9693   -7.9841 C.3     1  UNL1        0.1715
     34 C          17.3417   70.1791   -6.9148 C.3     1  UNL1        0.1694
     35 C          19.6015   70.7176   -7.8754 C.3     1  UNL1        0.1967
     36 C          17.9589   70.3939   -5.5263 C.3     1  UNL1        0.1761
     37 C          20.1045   70.9114   -6.4438 C.3     1  UNL1        0.2704
     38 H          16.6905   70.6925   -9.3442 H       1  UNL1        0.2105
     39 H          15.6059   70.4700   -7.8087 H       1  UNL1        0.2105
     40 H          19.9643   71.4579   -9.6661 H       1  UNL1        0.2106
     41 O          16.5758   68.4863   -5.1303 O.3     1  UNL1       -0.3794
     42 C          17.3196   69.4944   -4.4708 C.3     1  UNL1        0.1693
     43 H          16.1634   67.9060   -4.4709 H       1  UNL1        0.2105
@<TRIPOS>UNITY_ATOM_ATTR
2 1
charge -1
26 1
charge -1
@<TRIPOS>BOND
     1    25    28    1
     2    25    24    1
     3    25    26    1
     4    25    27    2
     5     1     4    1
     6     1    24    1
     7     1     2    1
     8     1     3    2
     9     6    11    1
    10     6    12    1
    11    29    36    1
    12    29    37    1
    13     7     9    1
    14     7    13    1
    15     8    10    1
    16     8    14    1
    17    28    37    1
    18     4     5    1
    19    30    33    1
    20    30    38    1
    21    31    34    1
    22    31    39    1
    23    32    35    1
    24    32    40    1
    25    41    42    1
    26    41    43    1
    27    15    19    2
    28    16    22    2
    29    17    12    1
    30    17    19   ar
    31    17    20   ar
    32    18    19   ar
    33    18    22   ar
    34    18    23    1
    35     9    10    1
    36     9    11    1
    37    10    12    1
    38    11     5    1
    39    33    34    1
    40    33    35    1
    41    34    36    1
    42    35    37    1
    43    36    42    1
    44    20    21   ar
    45    21    22   ar
@<TRIPOS>MOLECULE
*****
 43 45 0 0 0
SMALL
GASTEIGER

@<TRIPOS>ATOM
      1 P          22.9698   73.5750   -4.1547 P.3     1  UNL1        0.2189
      2 O          23.0226   75.0400   -4.8389 O.co2   1  UNL1       -0.4371
      3 O          24.2109   72.7496   -4.3277 O.2     1  UNL1       -0.5170
      4 O          21.6067   72.9243   -4.7348 O.3     1  UNL1       -0.3112
      5 C          20.3715   73.5328   -4.4006 C.3     1  UNL1        0.1811
      6 O          18.5217   72.0388   -4.7471 O.3     1  UNL1       -0.3308
      7 O          19.4369   70.6294   -2.2638 O.3     1  UNL1       -0.3794
      8 O          20.4008   69.0251   -4.2472 O.3     1  UNL1       -0.3779
      9 C          20.2134   71.2508   -3.2867 C.3     1  UNL1        0.1713
     10 C          20.2168   70.3959   -4.5368 C.3     1  UNL1        0.1895
     11 C          19.4660   72.4938   -3.7534 C.3     1  UNL1        0.1764
     12 C          18.8469   70.6908   -5.1238 C.3     1  UNL1        0.2383
     13 H          19.8943   69.8331   -1.9496 H       1  UNL1        0.2105
     14 H          21.2865   68.8889   -3.8762 H       1  UNL1        0.2106
     15 O          16.6994   69.6387   -6.6269 O.2     1  UNL1       -0.2464
     16 O          18.8994   70.3533  -10.6132 O.2     1  UNL1       -0.2670
     17 N          18.8317   70.5903   -6.5560 N.ar    1  UNL1       -0.2551
     18 N          17.7965   69.9956   -8.6105 N.ar    1  UNL1       -0.2743
     19 C          17.7043   70.0455   -7.2137 C.ar    1  UNL1        0.3323
     20 C          19.9260   71.0295   -7.2932 C.ar    1  UNL1        0.0869
     21 C          19.9988   70.9737   -8.6247 C.ar    1  UNL1        0.0795
     22 C          18.8628   70.4182   -9.3883 C.ar    1  UNL1        0.2626
     23 H          17.0230   69.6195   -9.0901 H       1  UNL1        0.1734
     24 O          22.5899   73.9047   -2.6185 O.3     1  UNL1       -0.2703
     25 P          23.3162   74.8469   -1.5241 P.3     1  UNL1        0.2208
     26 O          22.5507   76.2629   -1.6871 O.co2   1  UNL1       -0.4371
     27 O          24.8077   74.9283   -1.6751 O.2     1  UNL1       -0.5170
     28 O          22.8184   74.2761   -0.0989 O.3     1  UNL1       -0.2858
     29 O          23.7402   73.6421    1.9904 O.3     1  UNL1       -0.3258
     30 O          21.5404   70.2426    1.1810 O.3     1  UNL1       -0.3794
     31 O          20.6483   72.0565    3.2211 O.3     1  UNL1       -0.3794
     32 O          22.9292   71.6078   -0.9608 O.3     1  UNL1       -0.3775
     33 C          21.8202   71.6452    1.1770 C.3     1  UNL1        0.1715
     34 C          21.9427   72.1138    2.6282 C.3     1  UNL1        0.1694
     35 C          23.1241   71.8919    0.4204 C.3     1  UNL1        0.1967
     36 C          22.5025   73.5407    2.7042 C.3     1  UNL1        0.1761
     37 C          23.6192   73.3279    0.6017 C.3     1  UNL1        0.2704
     38 H          20.7134   70.0792    1.6594 H       1  UNL1        0.2105
     39 H          20.3060   71.1504    3.1661 H       1  UNL1        0.2105
     40 H          22.6161   70.6959   -1.0622 H       1  UNL1        0.2106
     41 O          24.1828   74.0100    4.3368 O.3     1  UNL1       -0.3794
     42 C          22.7809   73.9700    4.1430 C.3     1  UNL1        0.1693
     43 H          24.3750   74.2821    5.2482 H       1  UNL1        0.2105
@<TRIPOS>UNITY_ATOM_ATTR
2 1
charge -1
26 1
charge -1
@<TRIPOS>BOND
     1    25    28    1
     2    25    24    1
     3    25    26    1
     4    25    27    2
     5     1     4    1
     6     1    24    1
     7     1     2    1
     8     1     3    2
     9     6    11    1
    10     6    12    1
    11    29    36    1
    12    29    37    1
    13     7     9    1
    14     7    13    1
    15     8    10    1
    16     8    14    1
    17    28    37    1
    18     4     5    1
    19    30    33    1
    20    30    38    1
    21    31    34    1
    22    31    39    1
    23    32    35    1
    24    32    40    1
    25    41    42    1
    26    41    43    1
    27    15    19    2
    28    16    22    2
    29    17    12    1
    30    17    19   ar
    31    17    20   ar
    32    18    19   ar
    33    18    22   ar
    34    18    23    1
    35     9    10    1
    36     9    11    1
    37    10    12    1
    38    11     5    1
    39    33    34    1
    40    33    35    1
    41    34    36    1
    42    35    37    1
    43    36    42    1
    44    20    21   ar
    45    21    22   ar
@<TRIPOS>MOLECULE
*****
 43 45 0 0 0
SMALL
GASTEIGER

@<TRIPOS>ATOM
      1 P          23.5271   72.3525   -3.4127 P.3     1  UNL1        0.2189
      2 O          24.0776   70.8513   -3.1656 O.co2   1  UNL1       -0.4371
      3 O          24.5743   73.3565   -3.7957 O.2     1  UNL1       -0.5170
      4 O          22.6922   72.6864   -2.0676 O.3     1  UNL1       -0.3112
      5 C          23.3981   72.7998   -0.8443 C.3     1  UNL1        0.1811
      6 O          24.4634   71.2795    0.6814 O.3     1  UNL1       -0.3308
      7 O          21.7177   70.2130    1.2421 O.3     1  UNL1       -0.3794
      8 O          22.1761   71.8319    3.3881 O.3     1  UNL1       -0.3779
      9 C          22.1276   71.5528    0.9733 C.3     1  UNL1        0.1713
     10 C          22.8372   72.1370    2.1770 C.3     1  UNL1        0.1895
     11 C          23.2449   71.5030   -0.0613 C.3     1  UNL1        0.1764
     12 C          24.2079   71.4891    2.0799 C.3     1  UNL1        0.2383
     13 H          21.0043   70.2191    1.9002 H       1  UNL1        0.2105
     14 H          21.3093   72.2669    3.4019 H       1  UNL1        0.2106
     15 O          26.8953   70.6802    2.3985 O.2     1  UNL1       -0.2464
     16 O          28.1023   74.7555    4.1808 O.2     1  UNL1       -0.2670
     17 N          25.2456   72.3187    2.6242 N.ar    1  UNL1       -0.2551
     18 N          27.4941   72.7101    3.2855 N.ar    1  UNL1       -0.2743
     19 C          26.5625   71.8163    2.7423 C.ar    1  UNL1        0.3323
     20 C          24.9531   73.6151    3.0339 C.ar    1  UNL1        0.0869
     21 C          25.8528   74.4544    3.5511 C.ar    1  UNL1        0.0795
     22 C          27.2519   74.0074    3.7085 C.ar    1  UNL1        0.2626
     23 H          28.4180   72.3818    3.3777 H       1  UNL1        0.1734
     24 O          22.3663   72.1368   -4.5168 O.3     1  UNL1       -0.2703
     25 P          21.9251   73.0389   -5.7834 P.3     1  UNL1        0.2208
     26 O          22.9844   72.6125   -6.9296 O.co2   1  UNL1       -0.4371
     27 O          21.8770   74.5129   -5.5022 O.2     1  UNL1       -0.5170
     28 O          20.5226   72.4043   -6.2683 O.3     1  UNL1       -0.2858
     29 O          19.5499   70.2583   -6.0129 O.3     1  UNL1       -0.3258
     30 O          18.4778   71.0068   -9.9297 O.3     1  UNL1       -0.3794
     31 O          16.4771   71.0915   -7.8710 O.3     1  UNL1       -0.3794
     32 O          21.0761   71.8364   -8.9601 O.3     1  UNL1       -0.3775
     33 C          18.7517   71.3429   -8.5668 C.3     1  UNL1        0.1715
     34 C          17.7848   70.5601   -7.6762 C.3     1  UNL1        0.1694
     35 C          20.1985   70.9750   -8.2430 C.3     1  UNL1        0.1967
     36 C          18.1877   70.6603   -6.1989 C.3     1  UNL1        0.1761
     37 C          20.4807   71.0608   -6.7420 C.3     1  UNL1        0.2704
     38 H          17.5608   71.2383  -10.1419 H       1  UNL1        0.2105
     39 H          16.2350   71.0226   -8.8079 H       1  UNL1        0.2105
     40 H          20.8876   71.7727   -9.9089 H       1  UNL1        0.2106
     41 O          16.1302   70.4434   -5.0037 O.3     1  UNL1       -0.3794
     42 C          17.3318   69.7604   -5.3102 C.3     1  UNL1        0.1693
     43 H          15.5752   69.8825   -4.4388 H       1  UNL1        0.2105
@<TRIPOS>UNITY_ATOM_ATTR
2 1
charge -1
26 1
charge -1
@<TRIPOS>BOND
     1    25    28    1
     2    25    24    1
     3    25    26    1
     4    25    27    2
     5     1     4    1
     6     1    24    1
     7     1     2    1
     8     1     3    2
     9     6    11    1
    10     6    12    1
    11    29    36    1
    12    29    37    1
    13     7     9    1
    14     7    13    1
    15     8    10    1
    16     8    14    1
    17    28    37    1
    18     4     5    1
    19    30    33    1
    20    30    38    1
    21    31    34    1
    22    31    39    1
    23    32    35    1
    24    32    40    1
    25    41    42    1
    26    41    43    1
    27    15    19    2
    28    16    22    2
    29    17    12    1
    30    17    19   ar
    31    17    20   ar
    32    18    19   ar
    33    18    22   ar
    34    18    23    1
    35     9    10    1
    36     9    11    1
    37    10    12    1
    38    11     5    1
    39    33    34    1
    40    33    35    1
    41    34    36    1
    42    35    37    1
    43    36    42    1
    44    20    21   ar
    45    21    22   ar
@<TRIPOS>MOLECULE
*****
 43 45 0 0 0
SMALL
GASTEIGER

@<TRIPOS>ATOM
      1 P          21.8645   72.4777   -5.6911 P.3     1  UNL1        0.2189
      2 O          21.1263   73.8837   -5.3817 O.co2   1  UNL1       -0.4371
      3 O          23.1288   72.5884   -6.4915 O.2     1  UNL1       -0.5170
      4 O          20.6994   71.5620   -6.3407 O.3     1  UNL1       -0.3112
      5 C          20.1689   71.9360   -7.6003 C.3     1  UNL1        0.1811
      6 O          18.9376   69.9167   -7.1756 O.3     1  UNL1       -0.3308
      7 O          18.1336   70.0217  -10.0624 O.3     1  UNL1       -0.3794
      8 O          15.9231   70.9919   -8.7940 O.3     1  UNL1       -0.3779
      9 C          18.3275   71.0929   -9.1403 C.3     1  UNL1        0.1713
     10 C          17.1749   71.1579   -8.1600 C.3     1  UNL1        0.1895
     11 C          19.4958   70.7261   -8.2337 C.3     1  UNL1        0.1764
     12 C          17.5047   70.0192   -7.2100 C.3     1  UNL1        0.2383
     13 H          17.3926   70.2332  -10.6523 H       1  UNL1        0.2105
     14 H          15.7592   71.7413   -9.3876 H       1  UNL1        0.2106
     15 O          16.2081   68.0861   -5.6100 O.2     1  UNL1       -0.2464
     16 O          15.6954   71.0522   -2.1199 O.2     1  UNL1       -0.2670
     17 N          17.0224   70.2590   -5.8791 N.ar    1  UNL1       -0.2551
     18 N          15.9540   69.5645   -3.8734 N.ar    1  UNL1       -0.2743
     19 C          16.3843   69.2207   -5.1613 C.ar    1  UNL1        0.3323
     20 C          17.1841   71.5124   -5.2988 C.ar    1  UNL1        0.0869
     21 C          16.7670   71.8245   -4.0700 C.ar    1  UNL1        0.0795
     22 C          16.0905   70.7963   -3.2532 C.ar    1  UNL1        0.2626
     23 H          15.5065   68.8571   -3.3548 H       1  UNL1        0.1734
     24 O          22.0537   71.8352   -4.2199 O.3     1  UNL1       -0.2703
     25 P          23.2497   71.9835   -3.1426 P.3     1  UNL1        0.2208
     26 O          23.8850   73.4302   -3.4903 O.co2   1  UNL1       -0.4371
     27 O          24.2374   70.8530   -3.1601 O.2     1  UNL1       -0.5170
     28 O          22.5015   72.1962   -1.7284 O.3     1  UNL1       -0.2858
     29 O          23.3946   70.6445   -0.1755 O.3     1  UNL1       -0.3258
     30 O          20.4282   72.2965    2.1744 O.3     1  UNL1       -0.3794
     31 O          23.1776   72.9344    2.7051 O.3     1  UNL1       -0.3794
     32 O          19.9431   71.8182   -0.6391 O.3     1  UNL1       -0.3775
     33 C          21.4520   72.2986    1.1758 C.3     1  UNL1        0.1715
     34 C          22.7674   71.8819    1.8367 C.3     1  UNL1        0.1694
     35 C          21.0717   71.3169    0.0690 C.3     1  UNL1        0.1967
     36 C          23.8509   71.6026    0.7865 C.3     1  UNL1        0.1761
     37 C          22.2354   71.0722   -0.8933 C.3     1  UNL1        0.2704
     38 H          20.6632   72.9182    2.8799 H       1  UNL1        0.2105
     39 H          22.4844   73.1011    3.3631 H       1  UNL1        0.2105
     40 H          19.2132   71.9687   -0.0190 H       1  UNL1        0.2106
     41 O          24.7666   70.3242    2.5854 O.3     1  UNL1       -0.3794
     42 C          25.1222   71.0345    1.4135 C.3     1  UNL1        0.1693
     43 H          25.5659   69.9566    2.9950 H       1  UNL1        0.2105
@<TRIPOS>UNITY_ATOM_ATTR
2 1
charge -1
26 1
charge -1
@<TRIPOS>BOND
     1    25    28    1
     2    25    24    1
     3    25    26    1
     4    25    27    2
     5     1     4    1
     6     1    24    1
     7     1     2    1
     8     1     3    2
     9     6    11    1
    10     6    12    1
    11    29    36    1
    12    29    37    1
    13     7     9    1
    14     7    13    1
    15     8    10    1
    16     8    14    1
    17    28    37    1
    18     4     5    1
    19    30    33    1
    20    30    38    1
    21    31    34    1
    22    31    39    1
    23    32    35    1
    24    32    40    1
    25    41    42    1
    26    41    43    1
    27    15    19    2
    28    16    22    2
    29    17    12    1
    30    17    19   ar
    31    17    20   ar
    32    18    19   ar
    33    18    22   ar
    34    18    23    1
    35     9    10    1
    36     9    11    1
    37    10    12    1
    38    11     5    1
    39    33    34    1
    40    33    35    1
    41    34    36    1
    42    35    37    1
    43    36    42    1
    44    20    21   ar
    45    21    22   ar
@<TRIPOS>MOLECULE
*****
 43 45 0 0 0
SMALL
GASTEIGER

@<TRIPOS>ATOM
      1 P          23.2933   72.0653   -3.2300 P.3     1  UNL1        0.2189
      2 O          24.3236   72.6321   -4.3411 O.co2   1  UNL1       -0.4371
      3 O          23.8708   71.0474   -2.2910 O.2     1  UNL1       -0.5170
      4 O          22.0171   71.5775   -4.0967 O.3     1  UNL1       -0.3112
      5 C          21.5001   72.4483   -5.0877 C.3     1  UNL1        0.1811
      6 O          20.5088   70.4728   -6.0304 O.3     1  UNL1       -0.3308
      7 O          20.7082   71.8635   -8.6793 O.3     1  UNL1       -0.3794
      8 O          18.0839   72.2084   -8.0229 O.3     1  UNL1       -0.3779
      9 C          20.4234   72.4100   -7.3926 C.3     1  UNL1        0.1713
     10 C          19.0136   72.0532   -6.9701 C.3     1  UNL1        0.1895
     11 C          21.2627   71.6579   -6.3672 C.3     1  UNL1        0.1764
     12 C          19.1710   70.6053   -6.5379 C.3     1  UNL1        0.2383
     13 H          20.1839   72.3282   -9.3510 H       1  UNL1        0.2105
     14 H          18.0192   73.1462   -8.2617 H       1  UNL1        0.2106
     15 O          16.5184   69.7560   -7.0074 O.2     1  UNL1       -0.2464
     16 O          15.6983   69.2212   -2.5038 O.2     1  UNL1       -0.2670
     17 N          18.2424   70.2375   -5.5064 N.ar    1  UNL1       -0.2551
     18 N          16.1123   69.4902   -4.7646 N.ar    1  UNL1       -0.2743
     19 C          16.9333   69.8260   -5.8487 C.ar    1  UNL1        0.3323
     20 C          18.6330   70.2867   -4.1727 C.ar    1  UNL1        0.0869
     21 C          17.8376   69.9645   -3.1505 C.ar    1  UNL1        0.0795
     22 C          16.4540   69.5241   -3.4219 C.ar    1  UNL1        0.2626
     23 H          15.1957   69.2010   -4.9789 H       1  UNL1        0.1734
     24 O          22.7538   73.4108   -2.5146 O.3     1  UNL1       -0.2703
     25 P          23.5445   74.6034   -1.7628 P.3     1  UNL1        0.2208
     26 O          22.3549   75.4792   -1.1031 O.co2   1  UNL1       -0.4371
     27 O          24.4690   75.3845   -2.6512 O.2     1  UNL1       -0.5170
     28 O          24.2672   73.8879   -0.5095 O.3     1  UNL1       -0.2858
     29 O          22.6679   72.9187    0.9462 O.3     1  UNL1       -0.3258
     30 O          26.0525   72.4196    3.2583 O.3     1  UNL1       -0.3794
     31 O          24.8510   70.1388    1.9926 O.3     1  UNL1       -0.3794
     32 O          25.7101   74.8366    1.7026 O.3     1  UNL1       -0.3775
     33 C          25.3041   72.4868    2.0415 C.3     1  UNL1        0.1715
     34 C          24.2169   71.4113    2.0872 C.3     1  UNL1        0.1694
     35 C          24.6813   73.8758    1.9146 C.3     1  UNL1        0.1967
     36 C          23.2098   71.5927    0.9436 C.3     1  UNL1        0.1761
     37 C          23.6587   73.9346    0.7784 C.3     1  UNL1        0.2704
     38 H          26.4510   71.5403    3.3448 H       1  UNL1        0.2105
     39 H          25.4847   70.0371    2.7201 H       1  UNL1        0.2105
     40 H          26.3508   74.7896    2.4286 H       1  UNL1        0.2106
     41 O          20.8366   71.3475    0.8142 O.3     1  UNL1       -0.3794
     42 C          22.0311   70.6289    1.0612 C.3     1  UNL1        0.1693
     43 H          20.0779   70.7467    0.8853 H       1  UNL1        0.2105
@<TRIPOS>UNITY_ATOM_ATTR
2 1
charge -1
26 1
charge -1
@<TRIPOS>BOND
     1    25    28    1
     2    25    24    1
     3    25    26    1
     4    25    27    2
     5     1     4    1
     6     1    24    1
     7     1     2    1
     8     1     3    2
     9     6    11    1
    10     6    12    1
    11    29    36    1
    12    29    37    1
    13     7     9    1
    14     7    13    1
    15     8    10    1
    16     8    14    1
    17    28    37    1
    18     4     5    1
    19    30    33    1
    20    30    38    1
    21    31    34    1
    22    31    39    1
    23    32    35    1
    24    32    40    1
    25    41    42    1
    26    41    43    1
    27    15    19    2
    28    16    22    2
    29    17    12    1
    30    17    19   ar
    31    17    20   ar
    32    18    19   ar
    33    18    22   ar
    34    18    23    1
    35     9    10    1
    36     9    11    1
    37    10    12    1
    38    11     5    1
    39    33    34    1
    40    33    35    1
    41    34    36    1
    42    35    37    1
    43    36    42    1
    44    20    21   ar
    45    21    22   ar
@<TRIPOS>MOLECULE
*****
 43 45 0 0 0
SMALL
GASTEIGER

@<TRIPOS>ATOM
      1 P          20.3871   70.9989   -2.2587 P.3     1  UNL1        0.2189
      2 O          21.5435   70.0734   -2.9094 O.co2   1  UNL1       -0.4371
      3 O          19.1911   70.2519   -1.7459 O.2     1  UNL1       -0.5170
      4 O          20.0877   72.1061   -3.3999 O.3     1  UNL1       -0.3112
      5 C          20.8859   73.2764   -3.4325 C.3     1  UNL1        0.1811
      6 O          21.5335   72.0385   -5.3875 O.3     1  UNL1       -0.3308
      7 O          23.3053   74.3663   -6.0454 O.3     1  UNL1       -0.3794
      8 O          21.1597   74.7722   -7.6788 O.3     1  UNL1       -0.3779
      9 C          22.0135   74.3586   -5.4402 C.3     1  UNL1        0.1713
     10 C          20.9494   74.0610   -6.4759 C.3     1  UNL1        0.1895
     11 C          21.9267   73.1362   -4.5349 C.3     1  UNL1        0.1764
     12 C          21.0925   72.5589   -6.6522 C.3     1  UNL1        0.2383
     13 H          23.3846   75.1384   -6.6281 H       1  UNL1        0.2105
     14 H          21.0577   75.7227   -7.5146 H       1  UNL1        0.2106
     15 O          20.8795   69.9695   -7.7602 O.2     1  UNL1       -0.2464
     16 O          16.2843   70.2439   -7.9830 O.2     1  UNL1       -0.2670
     17 N          19.8528   71.9287   -7.0090 N.ar    1  UNL1       -0.2551
     18 N          18.5916   70.1081   -7.8701 N.ar    1  UNL1       -0.2743
     19 C          19.8555   70.6258   -7.5595 C.ar    1  UNL1        0.3323
     20 C          18.6516   72.6012   -6.8118 C.ar    1  UNL1        0.0869
     21 C          17.4548   72.0941   -7.1145 C.ar    1  UNL1        0.0795
     22 C          17.3697   70.7379   -7.6940 C.ar    1  UNL1        0.2626
     23 H          18.5690   69.2021   -8.2552 H       1  UNL1        0.1734
     24 O          21.1861   71.8425   -1.1348 O.3     1  UNL1       -0.2703
     25 P          22.0592   71.3567    0.1358 P.3     1  UNL1        0.2208
     26 O          23.5171   71.0688   -0.5040 O.co2   1  UNL1       -0.4371
     27 O          21.4689   70.1940    0.8798 O.2     1  UNL1       -0.5170
     28 O          22.2605   72.6878    1.0261 O.3     1  UNL1       -0.2858
     29 O          23.9324   73.3829    2.5552 O.3     1  UNL1       -0.3258
     30 O          20.5864   74.6610    4.6099 O.3     1  UNL1       -0.3794
     31 O          22.3023   76.5913    3.3539 O.3     1  UNL1       -0.3794
     32 O          20.5229   72.1541    3.1640 O.3     1  UNL1       -0.3775
     33 C          21.3779   74.3874    3.4506 C.3     1  UNL1        0.1715
     34 C          22.6567   75.2232    3.5349 C.3     1  UNL1        0.1694
     35 C          21.7111   72.8971    3.4140 C.3     1  UNL1        0.1967
     36 C          23.6733   74.7892    2.4704 C.3     1  UNL1        0.1761
     37 C          22.7674   72.5804    2.3538 C.3     1  UNL1        0.2704
     38 H          20.3710   75.6056    4.6389 H       1  UNL1        0.2105
     39 H          21.6596   76.8526    4.0321 H       1  UNL1        0.2105
     40 H          19.8622   72.3631    3.8421 H       1  UNL1        0.2106
     41 O          26.0510   74.5549    2.4485 O.3     1  UNL1       -0.3794
     42 C          25.0143   75.5006    2.6365 C.3     1  UNL1        0.1693
     43 H          26.9105   74.9937    2.5510 H       1  UNL1        0.2105
@<TRIPOS>UNITY_ATOM_ATTR
2 1
charge -1
26 1
charge -1
@<TRIPOS>BOND
     1    25    28    1
     2    25    24    1
     3    25    26    1
     4    25    27    2
     5     1     4    1
     6     1    24    1
     7     1     2    1
     8     1     3    2
     9     6    11    1
    10     6    12    1
    11    29    36    1
    12    29    37    1
    13     7     9    1
    14     7    13    1
    15     8    10    1
    16     8    14    1
    17    28    37    1
    18     4     5    1
    19    30    33    1
    20    30    38    1
    21    31    34    1
    22    31    39    1
    23    32    35    1
    24    32    40    1
    25    41    42    1
    26    41    43    1
    27    15    19    2
    28    16    22    2
    29    17    12    1
    30    17    19   ar
    31    17    20   ar
    32    18    19   ar
    33    18    22   ar
    34    18    23    1
    35     9    10    1
    36     9    11    1
    37    10    12    1
    38    11     5    1
    39    33    34    1
    40    33    35    1
    41    34    36    1
    42    35    37    1
    43    36    42    1
    44    20    21   ar
    45    21    22   ar
@<TRIPOS>MOLECULE
*****
 43 45 0 0 0
SMALL
GASTEIGER

@<TRIPOS>ATOM
      1 P          18.3356   69.6757   -3.3229 P.3     1  UNL1        0.2189
      2 O          17.7045   68.1990   -3.1272 O.co2   1  UNL1       -0.4371
      3 O          19.3632   69.7868   -4.4106 O.2     1  UNL1       -0.5170
      4 O          18.8358   70.0841   -1.8394 O.3     1  UNL1       -0.3112
      5 C          20.0225   70.8480   -1.7124 C.3     1  UNL1        0.1811
      6 O          20.3488   72.0891    0.3191 O.3     1  UNL1       -0.3308
      7 O          19.4786   74.5011   -1.2351 O.3     1  UNL1       -0.3794
      8 O          22.1922   74.7680   -1.1935 O.3     1  UNL1       -0.3779
      9 C          20.2513   73.3815   -1.6648 C.3     1  UNL1        0.1713
     10 C          21.6549   73.4643   -1.1020 C.3     1  UNL1        0.1895
     11 C          19.7037   72.1398   -0.9722 C.3     1  UNL1        0.1764
     12 C          21.4450   73.0180    0.3350 C.3     1  UNL1        0.2383
     13 H          19.8095   75.3061   -1.6645 H       1  UNL1        0.2105
     14 H          22.3071   75.0057   -2.1268 H       1  UNL1        0.2106
     15 O          21.5391   70.2938    1.0752 O.2     1  UNL1       -0.2464
     16 O          25.9359   70.6212    2.4175 O.2     1  UNL1       -0.2670
     17 N          22.6016   72.3650    0.8802 N.ar    1  UNL1       -0.2551
     18 N          23.7283   70.4590    1.7428 N.ar    1  UNL1       -0.2743
     19 C          22.5438   70.9932    1.2199 C.ar    1  UNL1        0.3323
     20 C          23.7767   73.0834    1.0727 C.ar    1  UNL1        0.0869
     21 C          24.8973   72.5595    1.5736 C.ar    1  UNL1        0.0795
     22 C          24.9210   71.1323    1.9542 C.ar    1  UNL1        0.2626
     23 H          23.7115   69.5051    1.9869 H       1  UNL1        0.1734
     24 O          17.0293   70.6041   -3.5342 O.3     1  UNL1       -0.2703
     25 P          16.7235   71.7794   -4.6010 P.3     1  UNL1        0.2208
     26 O          17.8593   72.8837   -4.2722 O.co2   1  UNL1       -0.4371
     27 O          15.3176   72.3038   -4.5528 O.2     1  UNL1       -0.5170
     28 O          17.1578   71.1601   -6.0268 O.3     1  UNL1       -0.2858
     29 O          18.8755   72.4302   -7.0530 O.3     1  UNL1       -0.3258
     30 O          17.9124   69.9501  -10.2109 O.3     1  UNL1       -0.3794
     31 O          20.3818   69.5542   -8.7990 O.3     1  UNL1       -0.3794
     32 O          15.8227   70.9718   -8.4879 O.3     1  UNL1       -0.3775
     33 C          18.1074   70.2935   -8.8363 C.3     1  UNL1        0.1715
     34 C          19.5667   70.7133   -8.6492 C.3     1  UNL1        0.1694
     35 C          17.1669   71.4401   -8.4700 C.3     1  UNL1        0.1967
     36 C          19.7881   71.3476   -7.2694 C.3     1  UNL1        0.1761
     37 C          17.5041   72.0315   -7.1001 C.3     1  UNL1        0.2704
     38 H          18.5063   69.2223  -10.4498 H       1  UNL1        0.2105
     39 H          20.2321   69.1631   -9.6741 H       1  UNL1        0.2105
     40 H          15.6215   70.6001   -9.3604 H       1  UNL1        0.2106
     41 O          21.6978   72.2202   -8.4099 O.3     1  UNL1       -0.3794
     42 C          21.1977   71.9160   -7.1208 C.3     1  UNL1        0.1693
     43 H          22.5943   72.5831   -8.3308 H       1  UNL1        0.2105
@<TRIPOS>UNITY_ATOM_ATTR
2 1
charge -1
26 1
charge -1
@<TRIPOS>BOND
     1    25    28    1
     2    25    24    1
     3    25    26    1
     4    25    27    2
     5     1     4    1
     6     1    24    1
     7     1     2    1
     8     1     3    2
     9     6    11    1
    10     6    12    1
    11    29    36    1
    12    29    37    1
    13     7     9    1
    14     7    13    1
    15     8    10    1
    16     8    14    1
    17    28    37    1
    18     4     5    1
    19    30    33    1
    20    30    38    1
    21    31    34    1
    22    31    39    1
    23    32    35    1
    24    32    40    1
    25    41    42    1
    26    41    43    1
    27    15    19    2
    28    16    22    2
    29    17    12    1
    30    17    19   ar
    31    17    20   ar
    32    18    19   ar
    33    18    22   ar
    34    18    23    1
    35     9    10    1
    36     9    11    1
    37    10    12    1
    38    11     5    1
    39    33    34    1
    40    33    35    1
    41    34    36    1
    42    35    37    1
    43    36    42    1
    44    20    21   ar
    45    21    22   ar
@<TRIPOS>MOLECULE
*****
 43 45 0 0 0
SMALL
GASTEIGER

@<TRIPOS>ATOM
      1 P          23.0965   71.8739   -2.8937 P.3     1  UNL1        0.2189
      2 O          24.3085   70.8175   -3.0735 O.co2   1  UNL1       -0.4371
      3 O          23.5217   73.3019   -2.7156 O.2     1  UNL1       -0.5170
      4 O          22.2117   71.2491   -1.6918 O.3     1  UNL1       -0.3112
      5 C          22.3244   71.8222   -0.4008 C.3     1  UNL1        0.1811
      6 O          23.9637   72.9077    0.9806 O.3     1  UNL1       -0.3308
      7 O          25.6898   70.5042    0.4968 O.3     1  UNL1       -0.3794
      8 O          24.6957   70.0295    2.9913 O.3     1  UNL1       -0.3779
      9 C          24.2747   70.5803    0.6610 C.3     1  UNL1        0.1713
     10 C          23.9265   70.8267    2.1141 C.3     1  UNL1        0.1895
     11 C          23.7936   71.8642   -0.0035 C.3     1  UNL1        0.1764
     12 C          24.2212   72.3098    2.2616 C.3     1  UNL1        0.2383
     13 H          26.0202   69.6920    0.9129 H       1  UNL1        0.2105
     14 H          24.4720   69.0950    2.8593 H       1  UNL1        0.2106
     15 O          21.4803   71.7367    2.6314 O.2     1  UNL1       -0.2464
     16 O          21.1185   74.7856    6.0686 O.2     1  UNL1       -0.2670
     17 N          23.3867   72.9388    3.2461 N.ar    1  UNL1       -0.2551
     18 N          21.3024   73.2552    4.3426 N.ar    1  UNL1       -0.2743
     19 C          22.0224   72.5799    3.3488 C.ar    1  UNL1        0.3323
     20 C          23.9223   73.8995    4.0970 C.ar    1  UNL1        0.0869
     21 C          23.2219   74.5351    5.0387 C.ar    1  UNL1        0.0795
     22 C          21.7895   74.2185    5.2118 C.ar    1  UNL1        0.2626
     23 H          20.3499   73.0218    4.4324 H       1  UNL1        0.1734
     24 O          22.1811   71.6023   -4.1980 O.3     1  UNL1       -0.2703
     25 P          20.8073   72.2951   -4.6936 P.3     1  UNL1        0.2208
     26 O          20.9819   72.3571   -6.3009 O.co2   1  UNL1       -0.4371
     27 O          20.5197   73.6208   -4.0504 O.2     1  UNL1       -0.5170
     28 O          19.6729   71.1732   -4.4498 O.3     1  UNL1       -0.2858
     29 O          17.4706   71.6189   -5.2036 O.3     1  UNL1       -0.3258
     30 O          16.6452   68.6137   -2.4946 O.3     1  UNL1       -0.3794
     31 O          16.4600   68.0754   -5.3095 O.3     1  UNL1       -0.3794
     32 O          18.6809   70.5817   -1.8922 O.3     1  UNL1       -0.3775
     33 C          17.4140   69.2973   -3.4881 C.3     1  UNL1        0.1715
     34 C          16.5761   69.3871   -4.7651 C.3     1  UNL1        0.1694
     35 C          17.7640   70.6931   -2.9755 C.3     1  UNL1        0.1967
     36 C          17.2215   70.3341   -5.7857 C.3     1  UNL1        0.1761
     37 C          18.3543   71.5695   -4.0817 C.3     1  UNL1        0.2704
     38 H          16.4201   67.7266   -2.8136 H       1  UNL1        0.2105
     39 H          16.0515   67.4873   -4.6550 H       1  UNL1        0.2105
     40 H          18.2955   70.0248   -1.1985 H       1  UNL1        0.2106
     41 O          17.0232   70.1393   -8.1588 O.3     1  UNL1       -0.3794
     42 C          16.3256   70.5613   -7.0014 C.3     1  UNL1        0.1693
     43 H          16.4649   70.2777   -8.9405 H       1  UNL1        0.2105
@<TRIPOS>UNITY_ATOM_ATTR
2 1
charge -1
26 1
charge -1
@<TRIPOS>BOND
     1    25    28    1
     2    25    24    1
     3    25    26    1
     4    25    27    2
     5     1     4    1
     6     1    24    1
     7     1     2    1
     8     1     3    2
     9     6    11    1
    10     6    12    1
    11    29    36    1
    12    29    37    1
    13     7     9    1
    14     7    13    1
    15     8    10    1
    16     8    14    1
    17    28    37    1
    18     4     5    1
    19    30    33    1
    20    30    38    1
    21    31    34    1
    22    31    39    1
    23    32    35    1
    24    32    40    1
    25    41    42    1
    26    41    43    1
    27    15    19    2
    28    16    22    2
    29    17    12    1
    30    17    19   ar
    31    17    20   ar
    32    18    19   ar
    33    18    22   ar
    34    18    23    1
    35     9    10    1
    36     9    11    1
    37    10    12    1
    38    11     5    1
    39    33    34    1
    40    33    35    1
    41    34    36    1
    42    35    37    1
    43    36    42    1
    44    20    21   ar
    45    21    22   ar
@<TRIPOS>MOLECULE
*****
 43 45 0 0 0
SMALL
GASTEIGER

@<TRIPOS>ATOM
      1 P          23.0043   72.1715   -3.6251 P.3     1  UNL1        0.2189
      2 O          23.2830   70.6018   -3.3501 O.co2   1  UNL1       -0.4371
      3 O          24.1387   72.9133   -4.2688 O.2     1  UNL1       -0.5170
      4 O          22.5199   72.7375   -2.1888 O.3     1  UNL1       -0.3112
      5 C          23.4184   72.6650   -1.0956 C.3     1  UNL1        0.1811
      6 O          24.3624   71.0331    0.3943 O.3     1  UNL1       -0.3308
      7 O          21.5388   70.2206    0.9926 O.3     1  UNL1       -0.3794
      8 O          22.1828   71.7629    3.1474 O.3     1  UNL1       -0.3779
      9 C          22.0676   71.5195    0.7310 C.3     1  UNL1        0.1713
     10 C          22.8489   72.0200    1.9280 C.3     1  UNL1        0.1895
     11 C          23.1578   71.3786   -0.3240 C.3     1  UNL1        0.1764
     12 C          24.1512   71.2483    1.7992 C.3     1  UNL1        0.2383
     13 H          20.8403   70.2851    1.6634 H       1  UNL1        0.2105
     14 H          21.3608   72.2767    3.1815 H       1  UNL1        0.2106
     15 O          24.1268   74.0058    2.4104 O.2     1  UNL1       -0.2464
     16 O          28.5060   73.9136    3.8442 O.2     1  UNL1       -0.2670
     17 N          25.2710   71.9706    2.3338 N.ar    1  UNL1       -0.2551
     18 N          26.3073   73.9576    3.1240 N.ar    1  UNL1       -0.2743
     19 C          25.1549   73.3539    2.6048 C.ar    1  UNL1        0.3323
     20 C          26.4676   71.3077    2.5843 C.ar    1  UNL1        0.0869
     21 C          27.5577   71.8981    3.0784 C.ar    1  UNL1        0.0795
     22 C          27.5202   73.3418    3.3890 C.ar    1  UNL1        0.2626
     23 H          26.2500   74.9209    3.3201 H       1  UNL1        0.1734
     24 O          21.6375   72.1523   -4.4879 O.3     1  UNL1       -0.2703
     25 P          20.4291   71.0798   -4.5384 P.3     1  UNL1        0.2208
     26 O          20.0410   70.8844   -2.9800 O.co2   1  UNL1       -0.4371
     27 O          20.7669   69.8057   -5.2570 O.2     1  UNL1       -0.5170
     28 O          19.1864   71.8941   -5.1690 O.3     1  UNL1       -0.2858
     29 O          19.4361   71.8531   -7.5254 O.3     1  UNL1       -0.3258
     30 O          16.0755   74.2378   -7.2594 O.3     1  UNL1       -0.3794
     31 O          15.8276   71.5393   -8.2105 O.3     1  UNL1       -0.3794
     32 O          18.2025   74.5181   -5.3160 O.3     1  UNL1       -0.3775
     33 C          16.9527   73.1751   -6.8765 C.3     1  UNL1        0.1715
     34 C          17.0765   72.2074   -8.0551 C.3     1  UNL1        0.1694
     35 C          18.3169   73.7595   -6.5151 C.3     1  UNL1        0.1967
     36 C          18.2013   71.1900   -7.8207 C.3     1  UNL1        0.1761
     37 C          19.3745   72.6663   -6.3520 C.3     1  UNL1        0.2704
     38 H          15.2074   73.8735   -7.4897 H       1  UNL1        0.2105
     39 H          15.1259   72.1930   -8.3573 H       1  UNL1        0.2105
     40 H          17.5303   75.2069   -5.4321 H       1  UNL1        0.2106
     41 O          18.6284   71.1590  -10.1713 O.3     1  UNL1       -0.3794
     42 C          18.4469   70.3159   -9.0486 C.3     1  UNL1        0.1693
     43 H          18.7860   70.6163  -10.9602 H       1  UNL1        0.2105
@<TRIPOS>UNITY_ATOM_ATTR
2 1
charge -1
26 1
charge -1
@<TRIPOS>BOND
     1    25    28    1
     2    25    24    1
     3    25    26    1
     4    25    27    2
     5     1     4    1
     6     1    24    1
     7     1     2    1
     8     1     3    2
     9     6    11    1
    10     6    12    1
    11    29    36    1
    12    29    37    1
    13     7     9    1
    14     7    13    1
    15     8    10    1
    16     8    14    1
    17    28    37    1
    18     4     5    1
    19    30    33    1
    20    30    38    1
    21    31    34    1
    22    31    39    1
    23    32    35    1
    24    32    40    1
    25    41    42    1
    26    41    43    1
    27    15    19    2
    28    16    22    2
    29    17    12    1
    30    17    19   ar
    31    17    20   ar
    32    18    19   ar
    33    18    22   ar
    34    18    23    1
    35     9    10    1
    36     9    11    1
    37    10    12    1
    38    11     5    1
    39    33    34    1
    40    33    35    1
    41    34    36    1
    42    35    37    1
    43    36    42    1
    44    20    21   ar
    45    21    22   ar
