@<TRIPOS>MOLECULE
UDP-glaA
 43 45 0 0 0
SMALL
GASTEIGER

@<TRIPOS>ATOM
      1 P          22.9738   71.8479   -3.3927 P.3     1  UNL1        0.2189
      2 O          23.7334   72.8909   -4.3687 O.3     1  UNL1       -0.4371
      3 O          23.6833   70.5415   -3.1875 O.2     1  UNL1       -0.5170
      4 O          21.4834   71.7486   -4.0128 O.3     1  UNL1       -0.3112
      5 C          20.6436   70.6875   -3.5911 C.3     1  UNL1        0.1811
      6 O          18.8328   71.8338   -4.6779 O.3     1  UNL1       -0.3308
      7 O          17.0736   70.7005   -2.5303 O.3     1  UNL1       -0.3794
      8 O          16.5760   69.0479   -4.6414 O.3     1  UNL1       -0.3779
      9 C          18.2008   70.1117   -3.1788 C.3     1  UNL1        0.1713
     10 C          17.8347   69.6868   -4.5852 C.3     1  UNL1        0.1895
     11 C          19.2232   71.2113   -3.4340 C.3     1  UNL1        0.1764
     12 C          17.8511   71.0110   -5.3296 C.3     1  UNL1        0.2383
     13 H          17.3654   70.9918   -1.6496 H       1  UNL1        0.2105
     14 H          16.6149   68.2726   -4.0553 H       1  UNL1        0.2106
     15 O          16.0143   70.4818   -7.4083 O.2     1  UNL1       -0.2464
     16 O          19.3467   70.4463  -10.5914 O.2     1  UNL1       -0.2670
     17 N          18.2110   70.8593   -6.7104 N.ar    1  UNL1       -0.2551
     18 N          17.6750   70.4640   -8.9919 N.ar    1  UNL1       -0.2743
     19 C          17.2119   70.5941   -7.6759 C.ar    1  UNL1        0.3323
     20 C          19.5420   70.9732   -7.0964 C.ar    1  UNL1        0.0869
     21 C          19.9675   70.8470   -8.3553 C.ar    1  UNL1        0.0795
     22 C          18.9880   70.5685   -9.4242 C.ar    1  UNL1        0.2626
     23 H          16.9742   70.2725   -9.7029 H       1  UNL1        0.1734
     24 O          22.7492   72.7116   -2.0441 O.3     1  UNL1       -0.2703
     25 P          22.2032   74.2175   -1.8280 P.3     1  UNL1        0.2208
     26 O          20.6775   74.1387   -2.3590 O.3     1  UNL1       -0.4371
     27 O          23.0368   75.2761   -2.4915 O.2     1  UNL1       -0.5170
     28 O          22.0709   74.3788   -0.2278 O.3     1  UNL1       -0.2858
     29 O          21.1719   72.3153    0.5026 O.3     1  UNL1       -0.3226
     30 O          21.8542   74.2892    4.0967 O.3     1  UNL1       -0.3794
     31 O          20.7685   75.7239    1.8013 O.3     1  UNL1       -0.3775
     32 O          21.1203   71.7436    3.3149 O.3     1  UNL1       -0.3792
     33 C          22.0608   73.8939    2.7434 C.3     1  UNL1        0.1718
     34 C          20.8651   74.3055    1.8779 C.3     1  UNL1        0.1968
     35 C          22.2450   72.3746    2.6939 C.3     1  UNL1        0.1723
     36 C          20.9989   73.7356    0.4603 C.3     1  UNL1        0.2706
     37 C          22.3258   71.9146    1.2400 C.3     1  UNL1        0.1830
     38 H          22.6324   74.0069    4.6069 H       1  UNL1        0.2105
     39 H          20.0057   75.9360    1.2374 H       1  UNL1        0.2106
     40 H          20.3573   71.8141    2.7165 H       1  UNL1        0.2106
     41 O          23.3960   69.9279    1.8814 O.co2   1  UNL1       -0.5466
     42 O          21.6046   69.7377    0.4843 O.co2   1  UNL1       -0.5466
     43 C          22.3759   70.4231    1.1399 C.2     1  UNL1        0.0799
@<TRIPOS>UNITY_ATOM_ATTR
41 1
charge -1
@<TRIPOS>BOND
     1     1     4    1
     2     1    24    1
     3     1     2    1
     4     1     3    2
     5    25    28    1
     6    25    24    1
     7    25    26    1
     8    25    27    2
     9     6    11    1
    10     6    12    1
    11    29    36    1
    12    29    37    1
    13     7     9    1
    14     7    13    1
    15     8    10    1
    16     8    14    1
    17     4     5    1
    18    28    36    1
    19    30    33    1
    20    30    38    1
    21    31    34    1
    22    31    39    1
    23    32    35    1
    24    32    40    1
    25    41    43   ar
    26    15    19    2
    27    42    43   ar
    28    16    22    2
    29    17    12    1
    30    17    19   ar
    31    17    20   ar
    32    18    19   ar
    33    18    22   ar
    34    18    23    1
    35     9    10    1
    36     9    11    1
    37    10    12    1
    38    11     5    1
    39    33    34    1
    40    33    35    1
    41    34    36    1
    42    35    37    1
    43    37    43    1
    44    20    21   ar
    45    21    22   ar
@<TRIPOS>MOLECULE
UDP-glaA
 43 45 0 0 0
SMALL
GASTEIGER

@<TRIPOS>ATOM
      1 P          20.4651   74.0694   -5.2867 P.3     1  UNL1        0.2189
      2 O          19.5833   73.4556   -4.0770 O.3     1  UNL1       -0.4371
      3 O          19.9410   75.3512   -5.8649 O.2     1  UNL1       -0.5170
      4 O          20.6125   72.8383   -6.3251 O.3     1  UNL1       -0.3112
      5 C          21.0917   73.1078   -7.6316 C.3     1  UNL1        0.1811
      6 O          20.0562   70.9724   -8.0088 O.3     1  UNL1       -0.3308
      7 O          18.5918   72.2915  -10.2687 O.3     1  UNL1       -0.3794
      8 O          16.7152   72.2428   -8.2908 O.3     1  UNL1       -0.3779
      9 C          18.9660   72.8277   -8.9998 C.3     1  UNL1        0.1713
     10 C          18.0753   72.2690   -7.9102 C.3     1  UNL1        0.1895
     11 C          20.3252   72.2497   -8.6280 C.3     1  UNL1        0.1764
     12 C          18.6532   70.8780   -7.7123 C.3     1  UNL1        0.2383
     13 H          19.2126   72.6462  -10.9277 H       1  UNL1        0.2105
     14 H          16.4534   73.1550   -8.5043 H       1  UNL1        0.2106
     15 O          16.2008   70.0132   -6.6110 O.2     1  UNL1       -0.2464
     16 O          18.1489   69.0779   -2.5405 O.2     1  UNL1       -0.2670
     17 N          18.4908   70.4030   -6.3679 N.ar    1  UNL1       -0.2551
     18 N          17.1724   69.5485   -4.5846 N.ar    1  UNL1       -0.2743
     19 C          17.2159   69.9929   -5.9126 C.ar    1  UNL1        0.3323
     20 C          19.5878   70.3472   -5.5153 C.ar    1  UNL1        0.0869
     21 C          19.5300   69.9205   -4.2518 C.ar    1  UNL1        0.0795
     22 C          18.2358   69.4752   -3.6983 C.ar    1  UNL1        0.2626
     23 H          16.2659   69.2493   -4.2355 H       1  UNL1        0.1734
     24 O          21.9430   74.1772   -4.6392 O.3     1  UNL1       -0.2703
     25 P          22.7919   73.1249   -3.7534 P.3     1  UNL1        0.2208
     26 O          24.3258   73.5465   -4.0452 O.3     1  UNL1       -0.4371
     27 O          22.4793   71.6843   -4.0413 O.2     1  UNL1       -0.5170
     28 O          22.5293   73.5714   -2.2251 O.3     1  UNL1       -0.2858
     29 O          21.5628   71.7389   -1.0818 O.3     1  UNL1       -0.3226
     30 O          21.7053   74.6423    1.8896 O.3     1  UNL1       -0.3794
     31 O          20.9363   75.3463   -0.8341 O.3     1  UNL1       -0.3775
     32 O          21.1219   71.9461    1.7469 O.3     1  UNL1       -0.3792
     33 C          22.1060   73.9072    0.7366 C.3     1  UNL1        0.1718
     34 C          21.0393   74.0082   -0.3590 C.3     1  UNL1        0.1968
     35 C          22.3149   72.4426    1.1310 C.3     1  UNL1        0.1723
     36 C          21.3793   73.0842   -1.5349 C.3     1  UNL1        0.2706
     37 C          22.6060   71.6116   -0.1168 C.3     1  UNL1        0.1830
     38 H          22.4072   74.5484    2.5560 H       1  UNL1        0.2105
     39 H          20.2580   75.3590   -1.5303 H       1  UNL1        0.2106
     40 H          20.4502   71.8134    1.0567 H       1  UNL1        0.2106
     41 O          21.4514   69.6314    0.3827 O.co2   1  UNL1       -0.5466
     42 O          23.7262   69.5121    0.2917 O.co2   1  UNL1       -0.5466
     43 C          22.6890   70.1532    0.2041 C.2     1  UNL1        0.0799
@<TRIPOS>UNITY_ATOM_ATTR
41 1
charge -1
@<TRIPOS>BOND
     1     1     4    1
     2     1    24    1
     3     1     2    1
     4     1     3    2
     5    25    28    1
     6    25    24    1
     7    25    26    1
     8    25    27    2
     9     6    11    1
    10     6    12    1
    11    29    36    1
    12    29    37    1
    13     7     9    1
    14     7    13    1
    15     8    10    1
    16     8    14    1
    17     4     5    1
    18    28    36    1
    19    30    33    1
    20    30    38    1
    21    31    34    1
    22    31    39    1
    23    32    35    1
    24    32    40    1
    25    41    43   ar
    26    15    19    2
    27    42    43   ar
    28    16    22    2
    29    17    12    1
    30    17    19   ar
    31    17    20   ar
    32    18    19   ar
    33    18    22   ar
    34    18    23    1
    35     9    10    1
    36     9    11    1
    37    10    12    1
    38    11     5    1
    39    33    34    1
    40    33    35    1
    41    34    36    1
    42    35    37    1
    43    37    43    1
    44    20    21   ar
    45    21    22   ar
@<TRIPOS>MOLECULE
UDP-glaA
 43 45 0 0 0
SMALL
GASTEIGER

@<TRIPOS>ATOM
      1 P          22.8250   71.7817   -2.3137 P.3     1  UNL1        0.2189
      2 O          23.1408   73.2681   -1.7585 O.3     1  UNL1       -0.4371
      3 O          23.5221   71.4227   -3.5933 O.2     1  UNL1       -0.5170
      4 O          21.2096   71.7144   -2.3504 O.3     1  UNL1       -0.3112
      5 C          20.5706   71.4496   -3.5876 C.3     1  UNL1        0.1811
      6 O          18.6140   72.2331   -4.7418 O.3     1  UNL1       -0.3308
      7 O          17.0343   71.0153   -2.5029 O.3     1  UNL1       -0.3794
      8 O          16.7925   69.1556   -4.4825 O.3     1  UNL1       -0.3779
      9 C          18.2380   70.5525   -3.1150 C.3     1  UNL1        0.1713
     10 C          17.9430   69.9753   -4.4833 C.3     1  UNL1        0.1895
     11 C          19.0879   71.7687   -3.4585 C.3     1  UNL1        0.1764
     12 C          17.7664   71.2288   -5.3234 C.3     1  UNL1        0.2383
     13 H          17.2772   71.4107   -1.6484 H       1  UNL1        0.2105
     14 H          16.9434   68.4401   -3.8411 H       1  UNL1        0.2106
     15 O          16.0148   70.3551   -7.3591 O.2     1  UNL1       -0.2464
     16 O          19.3465   70.4986  -10.5400 O.2     1  UNL1       -0.2670
     17 N          18.1491   71.0299   -6.6921 N.ar    1  UNL1       -0.2551
     18 N          17.6751   70.4266   -8.9416 N.ar    1  UNL1       -0.2743
     19 C          17.1928   70.5879   -7.6360 C.ar    1  UNL1        0.3323
     20 C          19.4600   71.2720   -7.0874 C.ar    1  UNL1        0.0869
     21 C          19.9042   71.1140   -8.3362 C.ar    1  UNL1        0.0795
     22 C          18.9695   70.6544   -9.3825 C.ar    1  UNL1        0.2626
     23 H          17.0053   70.1090   -9.6370 H       1  UNL1        0.1734
     24 O          23.1993   70.8378   -1.0551 O.3     1  UNL1       -0.2703
     25 P          22.4225   70.5690    0.3367 P.3     1  UNL1        0.2208
     26 O          23.4598   69.6483    1.1688 O.3     1  UNL1       -0.4371
     27 O          21.0551   69.9697    0.1730 O.2     1  UNL1       -0.5170
     28 O          22.4399   71.9926    1.0962 O.3     1  UNL1       -0.2858
     29 O          21.5664   72.6325    3.2003 O.3     1  UNL1       -0.3226
     30 O          21.0640   76.0968    0.9586 O.3     1  UNL1       -0.3794
     31 O          20.5187   73.4821   -0.2126 O.3     1  UNL1       -0.3775
     32 O          20.8035   75.3689    3.6105 O.3     1  UNL1       -0.3792
     33 C          21.6658   74.8854    1.4065 C.3     1  UNL1        0.1718
     34 C          20.7185   73.7024    1.1797 C.3     1  UNL1        0.1968
     35 C          21.9930   75.0163    2.8965 C.3     1  UNL1        0.1723
     36 C          21.2839   72.4248    1.8125 C.3     1  UNL1        0.2706
     37 C          22.5074   73.6804    3.4283 C.3     1  UNL1        0.1830
     38 H          21.6962   76.8170    1.1236 H       1  UNL1        0.2105
     39 H          19.9221   72.7205   -0.3065 H       1  UNL1        0.2106
     40 H          20.2290   74.5862    3.6591 H       1  UNL1        0.2106
     41 O          23.3336   74.8761    5.2698 O.co2   1  UNL1       -0.5466
     42 O          22.3797   72.8490    5.6915 O.co2   1  UNL1       -0.5466
     43 C          22.7175   73.7249    4.9084 C.2     1  UNL1        0.0799
@<TRIPOS>UNITY_ATOM_ATTR
41 1
charge -1
@<TRIPOS>BOND
     1     1     4    1
     2     1    24    1
     3     1     2    1
     4     1     3    2
     5    25    28    1
     6    25    24    1
     7    25    26    1
     8    25    27    2
     9     6    11    1
    10     6    12    1
    11    29    36    1
    12    29    37    1
    13     7     9    1
    14     7    13    1
    15     8    10    1
    16     8    14    1
    17     4     5    1
    18    28    36    1
    19    30    33    1
    20    30    38    1
    21    31    34    1
    22    31    39    1
    23    32    35    1
    24    32    40    1
    25    41    43   ar
    26    15    19    2
    27    42    43   ar
    28    16    22    2
    29    17    12    1
    30    17    19   ar
    31    17    20   ar
    32    18    19   ar
    33    18    22   ar
    34    18    23    1
    35     9    10    1
    36     9    11    1
    37    10    12    1
    38    11     5    1
    39    33    34    1
    40    33    35    1
    41    34    36    1
    42    35    37    1
    43    37    43    1
    44    20    21   ar
    45    21    22   ar
@<TRIPOS>MOLECULE
UDP-glaA
 43 45 0 0 0
SMALL
GASTEIGER

@<TRIPOS>ATOM
      1 P          22.8311   71.8554   -2.3388 P.3     1  UNL1        0.2189
      2 O          23.5611   73.2947   -2.4521 O.3     1  UNL1       -0.4371
      3 O          23.4025   70.7847   -3.2215 O.2     1  UNL1       -0.5170
      4 O          21.2660   72.1932   -2.5666 O.3     1  UNL1       -0.3112
      5 C          20.5570   71.4786   -3.5645 C.3     1  UNL1        0.1811
      6 O          18.6015   72.2539   -4.7260 O.3     1  UNL1       -0.3308
      7 O          17.0189   71.0357   -2.4893 O.3     1  UNL1       -0.3794
      8 O          16.7886   69.1715   -4.4660 O.3     1  UNL1       -0.3779
      9 C          18.2258   70.5754   -3.0970 C.3     1  UNL1        0.1713
     10 C          17.9366   69.9946   -4.4651 C.3     1  UNL1        0.1895
     11 C          19.0731   71.7935   -3.4404 C.3     1  UNL1        0.1764
     12 C          17.7586   71.2459   -5.3080 C.3     1  UNL1        0.2383
     13 H          17.2581   71.4335   -1.6348 H       1  UNL1        0.2105
     14 H          16.9397   68.4576   -3.8228 H       1  UNL1        0.2106
     15 O          16.0121   70.3775   -7.3503 O.2     1  UNL1       -0.2464
     16 O          19.3564   70.5097  -10.5184 O.2     1  UNL1       -0.2670
     17 N          18.1459   71.0455   -6.6752 N.ar    1  UNL1       -0.2551
     18 N          17.6787   70.4434   -8.9264 N.ar    1  UNL1       -0.2743
     19 C          17.1919   70.6065   -7.6227 C.ar    1  UNL1        0.3323
     20 C          19.4591   71.2834   -7.0656 C.ar    1  UNL1        0.0869
     21 C          19.9076   71.1237   -8.3127 C.ar    1  UNL1        0.0795
     22 C          18.9755   70.6669   -9.3625 C.ar    1  UNL1        0.2626
     23 H          17.0105   70.1278   -9.6243 H       1  UNL1        0.1734
     24 O          22.9067   71.5344   -0.7556 O.3     1  UNL1       -0.2703
     25 P          22.0522   70.5137    0.1612 P.3     1  UNL1        0.2208
     26 O          23.1908   69.6116    0.8723 O.3     1  UNL1       -0.4371
     27 O          21.0185   69.7267   -0.5924 O.2     1  UNL1       -0.5170
     28 O          21.4571   71.4306    1.3483 O.3     1  UNL1       -0.2858
     29 O          21.8455   73.7024    0.8121 O.3     1  UNL1       -0.3226
     30 O          20.0023   73.9872    4.5270 O.3     1  UNL1       -0.3794
     31 O          21.9893   71.9148    4.0139 O.3     1  UNL1       -0.3775
     32 O          20.7770   75.7354    2.5337 O.3     1  UNL1       -0.3792
     33 C          20.2965   73.4732    3.2311 C.3     1  UNL1        0.1718
     34 C          21.7600   73.0255    3.1533 C.3     1  UNL1        0.1968
     35 C          20.0268   74.5652    2.1922 C.3     1  UNL1        0.1723
     36 C          22.1322   72.6321    1.7183 C.3     1  UNL1        0.2706
     37 C          20.4702   74.0822    0.8130 C.3     1  UNL1        0.1830
     38 H          19.0689   74.2598    4.5296 H       1  UNL1        0.2105
     39 H          22.9234   71.6618    3.9238 H       1  UNL1        0.2106
     40 H          21.7134   75.5725    2.3292 H       1  UNL1        0.2106
     41 O          19.2349   75.9079    0.0103 O.co2   1  UNL1       -0.5466
     42 O          21.1340   75.3596   -1.1254 O.co2   1  UNL1       -0.5466
     43 C          20.3454   75.1643   -0.2119 C.2     1  UNL1        0.0799
@<TRIPOS>UNITY_ATOM_ATTR
41 1
charge -1
@<TRIPOS>BOND
     1     1     4    1
     2     1    24    1
     3     1     2    1
     4     1     3    2
     5    25    28    1
     6    25    24    1
     7    25    26    1
     8    25    27    2
     9     6    11    1
    10     6    12    1
    11    29    36    1
    12    29    37    1
    13     7     9    1
    14     7    13    1
    15     8    10    1
    16     8    14    1
    17     4     5    1
    18    28    36    1
    19    30    33    1
    20    30    38    1
    21    31    34    1
    22    31    39    1
    23    32    35    1
    24    32    40    1
    25    41    43   ar
    26    15    19    2
    27    42    43   ar
    28    16    22    2
    29    17    12    1
    30    17    19   ar
    31    17    20   ar
    32    18    19   ar
    33    18    22   ar
    34    18    23    1
    35     9    10    1
    36     9    11    1
    37    10    12    1
    38    11     5    1
    39    33    34    1
    40    33    35    1
    41    34    36    1
    42    35    37    1
    43    37    43    1
    44    20    21   ar
    45    21    22   ar
@<TRIPOS>MOLECULE
UDP-glaA
 43 45 0 0 0
SMALL
GASTEIGER

@<TRIPOS>ATOM
      1 P          22.4781   70.9460   -1.8523 P.3     1  UNL1        0.2189
      2 O          23.4435   70.8744   -3.1485 O.3     1  UNL1       -0.4371
      3 O          22.8765   70.0501   -0.7161 O.2     1  UNL1       -0.5170
      4 O          20.9975   70.7007   -2.4550 O.3     1  UNL1       -0.3112
      5 C          20.5985   71.4430   -3.5947 C.3     1  UNL1        0.1811
      6 O          18.6562   72.2558   -4.7528 O.3     1  UNL1       -0.3308
      7 O          17.0568   71.0991   -2.4955 O.3     1  UNL1       -0.3794
      8 O          16.7685   69.2222   -4.4526 O.3     1  UNL1       -0.3779
      9 C          18.2482   70.6029   -3.1054 C.3     1  UNL1        0.1713
     10 C          17.9367   70.0164   -4.4661 C.3     1  UNL1        0.1895
     11 C          19.1236   71.7961   -3.4654 C.3     1  UNL1        0.1764
     12 C          17.7851   71.2636   -5.3203 C.3     1  UNL1        0.2383
     13 H          17.3108   71.4990   -1.6463 H       1  UNL1        0.2105
     14 H          16.9056   68.5111   -3.8033 H       1  UNL1        0.2106
     15 O          16.0233   70.3451   -7.3272 O.2     1  UNL1       -0.2464
     16 O          19.3329   70.4413  -10.5328 O.2     1  UNL1       -0.2670
     17 N          18.1594   71.0404   -6.6875 N.ar    1  UNL1       -0.2551
     18 N          17.6727   70.3931   -8.9220 N.ar    1  UNL1       -0.2743
     19 C          17.1986   70.5772   -7.6165 C.ar    1  UNL1        0.3323
     20 C          19.4667   71.2800   -7.0963 C.ar    1  UNL1        0.0869
     21 C          19.9031   71.1002   -8.3449 C.ar    1  UNL1        0.0795
     22 C          18.9632   70.6175   -9.3760 C.ar    1  UNL1        0.2626
     23 H          16.9994   70.0600   -9.6068 H       1  UNL1        0.1734
     24 O          22.4679   72.5231   -1.4948 O.3     1  UNL1       -0.2703
     25 P          21.7533   73.3331   -0.2923 P.3     1  UNL1        0.2208
     26 O          22.5403   72.8157    1.0226 O.3     1  UNL1       -0.4371
     27 O          20.2629   73.1577   -0.2320 O.2     1  UNL1       -0.5170
     28 O          22.2377   74.8604   -0.4836 O.3     1  UNL1       -0.2858
     29 O          24.4968   74.9051   -1.1862 O.3     1  UNL1       -0.3226
     30 O          23.6361   78.9498   -0.7632 O.3     1  UNL1       -0.3794
     31 O          22.6610   77.0154    1.1895 O.3     1  UNL1       -0.3775
     32 O          25.7187   77.4370   -1.7652 O.3     1  UNL1       -0.3792
     33 C          23.4145   77.5724   -1.0529 C.3     1  UNL1        0.1718
     34 C          23.6410   76.7196    0.2000 C.3     1  UNL1        0.1968
     35 C          24.3763   77.1388   -2.1626 C.3     1  UNL1        0.1723
     36 C          23.5736   75.2256   -0.1403 C.3     1  UNL1        0.2706
     37 C          24.2537   75.6335   -2.3887 C.3     1  UNL1        0.1830
     38 H          23.4843   79.4501   -1.5831 H       1  UNL1        0.2105
     39 H          22.8387   76.4466    1.9575 H       1  UNL1        0.2106
     40 H          25.9887   76.7973   -1.0847 H       1  UNL1        0.2106
     41 O          26.2784   76.0360   -3.5034 O.co2   1  UNL1       -0.5466
     42 O          25.2009   74.0844   -3.9804 O.co2   1  UNL1       -0.5466
     43 C          25.2670   75.1438   -3.3739 C.2     1  UNL1        0.0799
@<TRIPOS>UNITY_ATOM_ATTR
41 1
charge -1
@<TRIPOS>BOND
     1     1     4    1
     2     1    24    1
     3     1     2    1
     4     1     3    2
     5    25    28    1
     6    25    24    1
     7    25    26    1
     8    25    27    2
     9     6    11    1
    10     6    12    1
    11    29    36    1
    12    29    37    1
    13     7     9    1
    14     7    13    1
    15     8    10    1
    16     8    14    1
    17     4     5    1
    18    28    36    1
    19    30    33    1
    20    30    38    1
    21    31    34    1
    22    31    39    1
    23    32    35    1
    24    32    40    1
    25    41    43   ar
    26    15    19    2
    27    42    43   ar
    28    16    22    2
    29    17    12    1
    30    17    19   ar
    31    17    20   ar
    32    18    19   ar
    33    18    22   ar
    34    18    23    1
    35     9    10    1
    36     9    11    1
    37    10    12    1
    38    11     5    1
    39    33    34    1
    40    33    35    1
    41    34    36    1
    42    35    37    1
    43    37    43    1
    44    20    21   ar
    45    21    22   ar
@<TRIPOS>MOLECULE
UDP-glaA
 43 45 0 0 0
SMALL
GASTEIGER

@<TRIPOS>ATOM
      1 P          22.6352   71.3872   -2.0439 P.3     1  UNL1        0.2189
      2 O          23.6554   70.6508   -3.0609 O.3     1  UNL1       -0.4371
      3 O          23.0785   71.4122   -0.6104 O.2     1  UNL1       -0.5170
      4 O          21.2149   70.6678   -2.3280 O.3     1  UNL1       -0.3112
      5 C          20.6379   70.7929   -3.6167 C.3     1  UNL1        0.1811
      6 O          18.8282   71.9100   -4.7353 O.3     1  UNL1       -0.3308
      7 O          17.0666   70.8328   -2.5609 O.3     1  UNL1       -0.3794
      8 O          16.5719   69.1254   -4.6287 O.3     1  UNL1       -0.3779
      9 C          18.1946   70.2275   -3.1924 C.3     1  UNL1        0.1713
     10 C          17.8304   69.7659   -4.5877 C.3     1  UNL1        0.1895
     11 C          19.2171   71.3203   -3.4751 C.3     1  UNL1        0.1764
     12 C          17.8474   71.0703   -5.3664 C.3     1  UNL1        0.2383
     13 H          17.3572   71.1470   -1.6878 H       1  UNL1        0.2105
     14 H          16.6103   68.3657   -4.0225 H       1  UNL1        0.2106
     15 O          16.0074   70.5364   -7.4411 O.2     1  UNL1       -0.2464
     16 O          19.3498   70.3660  -10.6094 O.2     1  UNL1       -0.2670
     17 N          18.2090   70.8826   -6.7424 N.ar    1  UNL1       -0.2551
     18 N          17.6730   70.4514   -9.0174 N.ar    1  UNL1       -0.2743
     19 C          17.2081   70.6183   -7.7062 C.ar    1  UNL1        0.3323
     20 C          19.5435   70.9609   -7.1252 C.ar    1  UNL1        0.0869
     21 C          19.9707   70.7998   -8.3795 C.ar    1  UNL1        0.0795
     22 C          18.9895   70.5197   -9.4464 C.ar    1  UNL1        0.2626
     23 H          16.9710   70.2599   -9.7270 H       1  UNL1        0.1734
     24 O          22.4442   72.8459   -2.7154 O.3     1  UNL1       -0.2703
     25 P          23.4823   74.0703   -2.9043 P.3     1  UNL1        0.2208
     26 O          22.5494   75.2636   -3.4716 O.3     1  UNL1       -0.4371
     27 O          24.6672   73.7456   -3.7682 O.2     1  UNL1       -0.5170
     28 O          23.8571   74.5241   -1.4018 O.3     1  UNL1       -0.2858
     29 O          22.4767   74.9784    0.4657 O.3     1  UNL1       -0.3226
     30 O          25.5997   77.6659    1.0167 O.3     1  UNL1       -0.3794
     31 O          24.4992   77.1984   -1.6434 O.3     1  UNL1       -0.3775
     32 O          23.4142   76.8059    2.4707 O.3     1  UNL1       -0.3792
     33 C          24.9409   76.4630    0.6304 C.3     1  UNL1        0.1718
     34 C          23.8832   76.7528   -0.4398 C.3     1  UNL1        0.1968
     35 C          24.2810   75.8415    1.8645 C.3     1  UNL1        0.1723
     36 C          23.0531   75.4978   -0.7371 C.3     1  UNL1        0.2706
     37 C          23.4516   74.6291    1.4471 C.3     1  UNL1        0.1830
     38 H          26.2569   77.4356    1.6953 H       1  UNL1        0.2105
     39 H          23.7934   77.3596   -2.2921 H       1  UNL1        0.2106
     40 H          22.6208   76.8994    1.9168 H       1  UNL1        0.2106
     41 O          23.3564   73.0340    3.1648 O.co2   1  UNL1       -0.5466
     42 O          21.6020   74.4794    2.9919 O.co2   1  UNL1       -0.5466
     43 C          22.6847   74.0671    2.6017 C.2     1  UNL1        0.0799
@<TRIPOS>UNITY_ATOM_ATTR
41 1
charge -1
@<TRIPOS>BOND
     1     1     4    1
     2     1    24    1
     3     1     2    1
     4     1     3    2
     5    25    28    1
     6    25    24    1
     7    25    26    1
     8    25    27    2
     9     6    11    1
    10     6    12    1
    11    29    36    1
    12    29    37    1
    13     7     9    1
    14     7    13    1
    15     8    10    1
    16     8    14    1
    17     4     5    1
    18    28    36    1
    19    30    33    1
    20    30    38    1
    21    31    34    1
    22    31    39    1
    23    32    35    1
    24    32    40    1
    25    41    43   ar
    26    15    19    2
    27    42    43   ar
    28    16    22    2
    29    17    12    1
    30    17    19   ar
    31    17    20   ar
    32    18    19   ar
    33    18    22   ar
    34    18    23    1
    35     9    10    1
    36     9    11    1
    37    10    12    1
    38    11     5    1
    39    33    34    1
    40    33    35    1
    41    34    36    1
    42    35    37    1
    43    37    43    1
    44    20    21   ar
    45    21    22   ar
@<TRIPOS>MOLECULE
UDP-glaA
 43 45 0 0 0
SMALL
GASTEIGER

@<TRIPOS>ATOM
      1 P          21.6515   70.3468   -1.0167 P.3     1  UNL1        0.2189
      2 O          23.1369   70.8028   -1.4674 O.3     1  UNL1       -0.4371
      3 O          21.5896   69.5710    0.2664 O.2     1  UNL1       -0.5170
      4 O          21.0618   69.5953   -2.3217 O.3     1  UNL1       -0.3112
      5 C          20.7514   70.3703   -3.4673 C.3     1  UNL1        0.1811
      6 O          19.0290   71.6840   -4.5073 O.3     1  UNL1       -0.3308
      7 O          17.1972   70.6226   -2.3838 O.3     1  UNL1       -0.3794
      8 O          16.5664   69.0781   -4.5408 O.3     1  UNL1       -0.3779
      9 C          18.2734   69.9698   -3.0570 C.3     1  UNL1        0.1713
     10 C          17.8703   69.6173   -4.4733 C.3     1  UNL1        0.1895
     11 C          19.3758   70.9957   -3.2854 C.3     1  UNL1        0.1764
     12 C          17.9847   70.9587   -5.1773 C.3     1  UNL1        0.2383
     13 H          17.5139   70.8637   -1.4966 H       1  UNL1        0.2105
     14 H          16.5484   68.2845   -3.9786 H       1  UNL1        0.2106
     15 O          16.1183   70.4710   -7.2398 O.2     1  UNL1       -0.2464
     16 O          19.4109   70.4519  -10.4642 O.2     1  UNL1       -0.2670
     17 N          18.3264   70.8224   -6.5644 N.ar    1  UNL1       -0.2551
     18 N          17.7592   70.4613   -8.8440 N.ar    1  UNL1       -0.2743
     19 C          17.3134   70.5776   -7.5208 C.ar    1  UNL1        0.3323
     20 C          19.6534   70.9311   -6.9653 C.ar    1  UNL1        0.0869
     21 C          20.0623   70.8182   -8.2310 C.ar    1  UNL1        0.0795
     22 C          19.0675   70.5614   -9.2912 C.ar    1  UNL1        0.2626
     23 H          17.0483   70.2846   -9.5487 H       1  UNL1        0.1734
     24 O          20.8336   71.7418   -1.0005 O.3     1  UNL1       -0.2703
     25 P          21.2933   73.2356   -0.5883 P.3     1  UNL1        0.2208
     26 O          19.9821   74.1280   -0.9053 O.3     1  UNL1       -0.4371
     27 O          22.5441   73.7063   -1.2736 O.2     1  UNL1       -0.5170
     28 O          21.3868   73.2049    1.0224 O.3     1  UNL1       -0.2858
     29 O          22.7575   74.8658    2.0032 O.3     1  UNL1       -0.3226
     30 O          22.0561   72.3117    5.2070 O.3     1  UNL1       -0.3794
     31 O          22.5867   71.2404    2.5467 O.3     1  UNL1       -0.3775
     32 O          23.2107   74.7935    4.8366 O.3     1  UNL1       -0.3792
     33 C          21.7979   73.0222    3.9992 C.3     1  UNL1        0.1718
     34 C          22.7900   72.6021    2.9094 C.3     1  UNL1        0.1968
     35 C          21.9236   74.5237    4.2714 C.3     1  UNL1        0.1723
     36 C          22.6317   73.4812    1.6626 C.3     1  UNL1        0.2706
     37 C          21.7909   75.2958    2.9605 C.3     1  UNL1        0.1830
     38 H          21.4079   72.6104    5.8674 H       1  UNL1        0.2105
     39 H          23.2288   71.0234    1.8499 H       1  UNL1        0.2106
     40 H          23.8783   74.7199    4.1337 H       1  UNL1        0.2106
     41 O          21.7828   77.1155    4.4412 O.co2   1  UNL1       -0.5466
     42 O          22.4164   77.5296    2.2908 O.co2   1  UNL1       -0.5466
     43 C          22.0363   76.7577    3.1592 C.2     1  UNL1        0.0799
@<TRIPOS>UNITY_ATOM_ATTR
41 1
charge -1
@<TRIPOS>BOND
     1     1     4    1
     2     1    24    1
     3     1     2    1
     4     1     3    2
     5    25    28    1
     6    25    24    1
     7    25    26    1
     8    25    27    2
     9     6    11    1
    10     6    12    1
    11    29    36    1
    12    29    37    1
    13     7     9    1
    14     7    13    1
    15     8    10    1
    16     8    14    1
    17     4     5    1
    18    28    36    1
    19    30    33    1
    20    30    38    1
    21    31    34    1
    22    31    39    1
    23    32    35    1
    24    32    40    1
    25    41    43   ar
    26    15    19    2
    27    42    43   ar
    28    16    22    2
    29    17    12    1
    30    17    19   ar
    31    17    20   ar
    32    18    19   ar
    33    18    22   ar
    34    18    23    1
    35     9    10    1
    36     9    11    1
    37    10    12    1
    38    11     5    1
    39    33    34    1
    40    33    35    1
    41    34    36    1
    42    35    37    1
    43    37    43    1
    44    20    21   ar
    45    21    22   ar
@<TRIPOS>MOLECULE
UDP-glaA
 43 45 0 0 0
SMALL
GASTEIGER

@<TRIPOS>ATOM
      1 P          21.0230   70.5314   -2.7727 P.3     1  UNL1        0.2189
      2 O          22.5542   70.8468   -3.1893 O.3     1  UNL1       -0.4371
      3 O          20.6677   69.0742   -2.7234 O.2     1  UNL1       -0.5170
      4 O          20.1484   71.4342   -3.7904 O.3     1  UNL1       -0.3112
      5 C          19.5657   72.6314   -3.3042 C.3     1  UNL1        0.1811
      6 O          17.6589   72.8613   -4.7484 O.3     1  UNL1       -0.3308
      7 O          16.1729   71.2024   -2.7406 O.3     1  UNL1       -0.3794
      8 O          16.7533   69.3925   -4.6958 O.3     1  UNL1       -0.3779
      9 C          17.5341   71.1079   -3.1601 C.3     1  UNL1        0.1713
     10 C          17.6159   70.5009   -4.5449 C.3     1  UNL1        0.1895
     11 C          18.0507   72.5204   -3.4003 C.3     1  UNL1        0.1764
     12 C          17.2206   71.6728   -5.4272 C.3     1  UNL1        0.2383
     13 H          16.1678   71.6315   -1.8680 H       1  UNL1        0.2105
     14 H          17.0027   68.7340   -4.0247 H       1  UNL1        0.2106
     15 O          16.3504   73.1434   -7.6756 O.2     1  UNL1       -0.2464
     16 O          19.6721   71.3830  -10.3413 O.2     1  UNL1       -0.2670
     17 N          17.8397   71.6184   -6.7207 N.ar    1  UNL1       -0.2551
     18 N          18.0047   72.2654   -9.0017 N.ar    1  UNL1       -0.2743
     19 C          17.3243   72.3961   -7.7839 C.ar    1  UNL1        0.3323
     20 C          18.9453   70.8007   -6.9261 C.ar    1  UNL1        0.0869
     21 C          19.5833   70.6874   -8.0931 C.ar    1  UNL1        0.0795
     22 C          19.1081   71.4651   -9.2545 C.ar    1  UNL1        0.2626
     23 H          17.6513   72.8148   -9.7804 H       1  UNL1        0.1734
     24 O          20.8623   71.3118   -1.3654 O.3     1  UNL1       -0.2703
     25 P          21.6601   71.1542    0.0315 P.3     1  UNL1        0.2208
     26 O          23.1728   71.5766   -0.3554 O.3     1  UNL1       -0.4371
     27 O          21.5374   69.7962    0.6611 O.2     1  UNL1       -0.5170
     28 O          21.1199   72.3661    0.9499 O.3     1  UNL1       -0.2858
     29 O          21.6322   74.6657    1.1709 O.3     1  UNL1       -0.3226
     30 O          21.1463   73.4972    5.1304 O.3     1  UNL1       -0.3794
     31 O          22.5466   71.7750    3.2386 O.3     1  UNL1       -0.3775
     32 O          21.4757   75.8775    3.7681 O.3     1  UNL1       -0.3792
     33 C          20.9306   73.5247    3.7222 C.3     1  UNL1        0.1718
     34 C          22.2117   73.1339    2.9776 C.3     1  UNL1        0.1968
     35 C          20.4977   74.9358    3.3149 C.3     1  UNL1        0.1723
     36 C          22.0413   73.3260    1.4655 C.3     1  UNL1        0.2706
     37 C          20.3993   75.0233    1.7934 C.3     1  UNL1        0.1830
     38 H          20.3122   73.7529    5.5599 H       1  UNL1        0.2105
     39 H          23.3559   71.5714    2.7403 H       1  UNL1        0.2106
     40 H          22.2630   75.8014    3.2028 H       1  UNL1        0.2106
     41 O          19.3404   77.0648    2.2566 O.co2   1  UNL1       -0.5466
     42 O          20.4991   76.9170    0.2989 O.co2   1  UNL1       -0.5466
     43 C          20.1050   76.4190    1.3435 C.2     1  UNL1        0.0799
@<TRIPOS>UNITY_ATOM_ATTR
41 1
charge -1
@<TRIPOS>BOND
     1     1     4    1
     2     1    24    1
     3     1     2    1
     4     1     3    2
     5    25    28    1
     6    25    24    1
     7    25    26    1
     8    25    27    2
     9     6    11    1
    10     6    12    1
    11    29    36    1
    12    29    37    1
    13     7     9    1
    14     7    13    1
    15     8    10    1
    16     8    14    1
    17     4     5    1
    18    28    36    1
    19    30    33    1
    20    30    38    1
    21    31    34    1
    22    31    39    1
    23    32    35    1
    24    32    40    1
    25    41    43   ar
    26    15    19    2
    27    42    43   ar
    28    16    22    2
    29    17    12    1
    30    17    19   ar
    31    17    20   ar
    32    18    19   ar
    33    18    22   ar
    34    18    23    1
    35     9    10    1
    36     9    11    1
    37    10    12    1
    38    11     5    1
    39    33    34    1
    40    33    35    1
    41    34    36    1
    42    35    37    1
    43    37    43    1
    44    20    21   ar
    45    21    22   ar
@<TRIPOS>MOLECULE
UDP-glaA
 43 45 0 0 0
SMALL
GASTEIGER

@<TRIPOS>ATOM
      1 P          22.9744   71.9236   -2.9753 P.3     1  UNL1        0.2189
      2 O          23.6652   70.4777   -3.1978 O.3     1  UNL1       -0.4371
      3 O          22.8176   72.3362   -1.5410 O.2     1  UNL1       -0.5170
      4 O          21.6077   71.8391   -3.8359 O.3     1  UNL1       -0.3112
      5 C          20.7260   70.7541   -3.6022 C.3     1  UNL1        0.1811
      6 O          18.9096   71.8981   -4.6821 O.3     1  UNL1       -0.3308
      7 O          17.1707   70.8109   -2.4946 O.3     1  UNL1       -0.3794
      8 O          16.6324   69.1307   -4.5737 O.3     1  UNL1       -0.3779
      9 C          18.2845   70.2036   -3.1489 C.3     1  UNL1        0.1713
     10 C          17.8965   69.7605   -4.5438 C.3     1  UNL1        0.1895
     11 C          19.3118   71.2913   -3.4343 C.3     1  UNL1        0.1764
     12 C          17.9131   71.0733   -5.3082 C.3     1  UNL1        0.2383
     13 H          17.4764   71.1130   -1.6223 H       1  UNL1        0.2105
     14 H          16.6732   68.3640   -3.9765 H       1  UNL1        0.2106
     15 O          16.0534   70.4627   -7.3439 O.2     1  UNL1       -0.2464
     16 O          19.3336   70.4214  -10.5808 O.2     1  UNL1       -0.2670
     17 N          18.2534   70.8981   -6.6913 N.ar    1  UNL1       -0.2551
     18 N          17.6882   70.4420   -8.9543 N.ar    1  UNL1       -0.2743
     19 C          17.2441   70.5923   -7.6340 C.ar    1  UNL1        0.3323
     20 C          19.5754   71.0292   -7.1018 C.ar    1  UNL1        0.0869
     21 C          19.9827   70.8834   -8.3646 C.ar    1  UNL1        0.0795
     22 C          18.9916   70.5625   -9.4107 C.ar    1  UNL1        0.2626
     23 H          16.9799   70.2213   -9.6491 H       1  UNL1        0.1734
     24 O          23.9014   72.9084   -3.8620 O.3     1  UNL1       -0.2703
     25 P          24.0168   74.5204   -3.8846 P.3     1  UNL1        0.2208
     26 O          25.6136   74.7782   -3.8801 O.3     1  UNL1       -0.4371
     27 O          23.2748   75.2068   -2.7738 O.2     1  UNL1       -0.5170
     28 O          23.5390   74.9438   -5.3667 O.3     1  UNL1       -0.2858
     29 O          21.5798   76.0679   -6.0717 O.3     1  UNL1       -0.3226
     30 O          22.3417   73.5460   -9.2870 O.3     1  UNL1       -0.3794
     31 O          22.6827   72.6005   -6.5492 O.3     1  UNL1       -0.3775
     32 O          20.6147   75.6311   -8.7394 O.3     1  UNL1       -0.3792
     33 C          22.6170   74.4007   -8.1807 C.3     1  UNL1        0.1718
     34 C          22.0259   73.8158   -6.8935 C.3     1  UNL1        0.1968
     35 C          22.0101   75.7791   -8.4567 C.3     1  UNL1        0.1723
     36 C          22.1664   74.8073   -5.7318 C.3     1  UNL1        0.2706
     37 C          22.1704   76.6665   -7.2243 C.3     1  UNL1        0.1830
     38 H          22.7311   73.9557  -10.0783 H       1  UNL1        0.2105
     39 H          22.2825   72.2738   -5.7258 H       1  UNL1        0.2106
     40 H          20.1503   75.4349   -7.9081 H       1  UNL1        0.2106
     41 O          20.2242   77.9330   -6.8894 O.co2   1  UNL1       -0.5466
     42 O          21.9684   78.9660   -7.9324 O.co2   1  UNL1       -0.5466
     43 C          21.4775   77.9800   -7.4020 C.2     1  UNL1        0.0799
@<TRIPOS>UNITY_ATOM_ATTR
41 1
charge -1
@<TRIPOS>BOND
     1     1     4    1
     2     1    24    1
     3     1     2    1
     4     1     3    2
     5    25    28    1
     6    25    24    1
     7    25    26    1
     8    25    27    2
     9     6    11    1
    10     6    12    1
    11    29    36    1
    12    29    37    1
    13     7     9    1
    14     7    13    1
    15     8    10    1
    16     8    14    1
    17     4     5    1
    18    28    36    1
    19    30    33    1
    20    30    38    1
    21    31    34    1
    22    31    39    1
    23    32    35    1
    24    32    40    1
    25    41    43   ar
    26    15    19    2
    27    42    43   ar
    28    16    22    2
    29    17    12    1
    30    17    19   ar
    31    17    20   ar
    32    18    19   ar
    33    18    22   ar
    34    18    23    1
    35     9    10    1
    36     9    11    1
    37    10    12    1
    38    11     5    1
    39    33    34    1
    40    33    35    1
    41    34    36    1
    42    35    37    1
    43    37    43    1
    44    20    21   ar
    45    21    22   ar
@<TRIPOS>MOLECULE
UDP-glaA
 43 45 0 0 0
SMALL
GASTEIGER

@<TRIPOS>ATOM
      1 P          22.3860   74.5162   -7.3081 P.3     1  UNL1        0.2189
      2 O          21.4525   75.6173   -6.5778 O.3     1  UNL1       -0.4371
      3 O          23.6020   75.0702   -7.9912 O.2     1  UNL1       -0.5170
      4 O          21.3589   73.7002   -8.2540 O.3     1  UNL1       -0.3112
      5 C          21.3107   72.2880   -8.1417 C.3     1  UNL1        0.1811
      6 O          19.6238   70.5883   -8.3405 O.3     1  UNL1       -0.3308
      7 O          18.2717   72.4216  -10.2905 O.3     1  UNL1       -0.3794
      8 O          16.8341   72.8159   -8.0071 O.3     1  UNL1       -0.3779
      9 C          19.0015   72.7421   -9.1062 C.3     1  UNL1        0.1713
     10 C          18.1810   72.4100   -7.8777 C.3     1  UNL1        0.1895
     11 C          20.1613   71.7619   -8.9894 C.3     1  UNL1        0.1764
     12 C          18.3307   70.9004   -7.7966 C.3     1  UNL1        0.2383
     13 H          18.8501   72.6138  -11.0482 H       1  UNL1        0.2105
     14 H          16.8315   73.7759   -8.1638 H       1  UNL1        0.2106
     15 O          16.0736   69.6281   -6.6733 O.2     1  UNL1       -0.2464
     16 O          18.1778   69.0781   -2.6103 O.2     1  UNL1       -0.2670
     17 N          18.2614   70.4143   -6.4482 N.ar    1  UNL1       -0.2551
     18 N          17.1227   69.3555   -4.6507 N.ar    1  UNL1       -0.2743
     19 C          17.0805   69.7909   -5.9817 C.ar    1  UNL1        0.3323
     20 C          19.3559   70.5575   -5.6027 C.ar    1  UNL1        0.0869
     21 C          19.3807   70.1366   -4.3361 C.ar    1  UNL1        0.0795
     22 C          18.1875   69.4759   -3.7711 C.ar    1  UNL1        0.2626
     23 H          16.2845   68.9049   -4.2936 H       1  UNL1        0.1734
     24 O          22.7010   73.4637   -6.1214 O.3     1  UNL1       -0.2703
     25 P          22.8213   73.6727   -4.5232 P.3     1  UNL1        0.2208
     26 O          23.4796   72.2851   -4.0160 O.3     1  UNL1       -0.4371
     27 O          21.5268   74.0275   -3.8492 O.2     1  UNL1       -0.5170
     28 O          23.9903   74.7700   -4.3410 O.3     1  UNL1       -0.2858
     29 O          26.2941   74.5270   -3.8585 O.3     1  UNL1       -0.3226
     30 O          25.3621   78.0705   -1.8953 O.3     1  UNL1       -0.3794
     31 O          23.5202   75.8102   -1.8272 O.3     1  UNL1       -0.3775
     32 O          27.6561   76.6524   -2.4924 O.3     1  UNL1       -0.3792
     33 C          25.3097   77.0589   -2.8974 C.3     1  UNL1        0.1718
     34 C          24.8647   75.7252   -2.2877 C.3     1  UNL1        0.1968
     35 C          26.6986   76.9106   -3.5246 C.3     1  UNL1        0.1723
     36 C          24.9701   74.5946   -3.3186 C.3     1  UNL1        0.2706
     37 C          26.6985   75.7355   -4.4999 C.3     1  UNL1        0.1830
     38 H          25.6499   78.8941   -2.3247 H       1  UNL1        0.2105
     39 H          23.2806   74.9429   -1.4595 H       1  UNL1        0.2106
     40 H          27.5401   75.7373   -2.1854 H       1  UNL1        0.2106
     41 O          28.2112   76.0203   -6.2703 O.co2   1  UNL1       -0.5466
     42 O          28.9449   74.8517   -4.4556 O.co2   1  UNL1       -0.5466
     43 C          28.0683   75.4722   -5.0395 C.2     1  UNL1        0.0799
@<TRIPOS>UNITY_ATOM_ATTR
41 1
charge -1
@<TRIPOS>BOND
     1     1     4    1
     2     1    24    1
     3     1     2    1
     4     1     3    2
     5    25    28    1
     6    25    24    1
     7    25    26    1
     8    25    27    2
     9     6    11    1
    10     6    12    1
    11    29    36    1
    12    29    37    1
    13     7     9    1
    14     7    13    1
    15     8    10    1
    16     8    14    1
    17     4     5    1
    18    28    36    1
    19    30    33    1
    20    30    38    1
    21    31    34    1
    22    31    39    1
    23    32    35    1
    24    32    40    1
    25    41    43   ar
    26    15    19    2
    27    42    43   ar
    28    16    22    2
    29    17    12    1
    30    17    19   ar
    31    17    20   ar
    32    18    19   ar
    33    18    22   ar
    34    18    23    1
    35     9    10    1
    36     9    11    1
    37    10    12    1
    38    11     5    1
    39    33    34    1
    40    33    35    1
    41    34    36    1
    42    35    37    1
    43    37    43    1
    44    20    21   ar
    45    21    22   ar
@<TRIPOS>MOLECULE
UDP-glaA
 43 45 0 0 0
SMALL
GASTEIGER

@<TRIPOS>ATOM
      1 P          23.0277   73.8869   -4.3604 P.3     1  UNL1        0.2189
      2 O          22.1602   75.0443   -3.6358 O.3     1  UNL1       -0.4371
      3 O          24.4342   73.7416   -3.8578 O.2     1  UNL1       -0.5170
      4 O          22.8749   74.2145   -5.9368 O.3     1  UNL1       -0.3112
      5 C          22.4934   73.1672   -6.8125 C.3     1  UNL1        0.1811
      6 O          21.2205   72.8879   -8.8314 O.3     1  UNL1       -0.3308
      7 O          21.7486   75.7946   -9.3448 O.3     1  UNL1       -0.3794
      8 O          19.1971   75.8137   -8.3831 O.3     1  UNL1       -0.3779
      9 C          21.5121   75.1245   -8.1068 C.3     1  UNL1        0.1713
     10 C          20.0478   74.7615   -7.9775 C.3     1  UNL1        0.1895
     11 C          22.1747   73.7551   -8.1798 C.3     1  UNL1        0.1764
     12 C          19.9432   73.5447   -8.8811 C.3     1  UNL1        0.2383
     13 H          22.7031   75.9718   -9.4007 H       1  UNL1        0.2105
     14 H          19.4022   76.5862   -7.8287 H       1  UNL1        0.2106
     15 O          19.1987   71.2116  -10.2875 O.2     1  UNL1       -0.2464
     16 O          16.0347   70.0962   -7.1277 O.2     1  UNL1       -0.2670
     17 N          18.9286   72.6264   -8.4488 N.ar    1  UNL1       -0.2551
     18 N          17.6233   70.6580   -8.7134 N.ar    1  UNL1       -0.2743
     19 C          18.6302   71.4848   -9.2287 C.ar    1  UNL1        0.3323
     20 C          18.2407   72.8613   -7.2634 C.ar    1  UNL1        0.0869
     21 C          17.2836   72.0632   -6.7853 C.ar    1  UNL1        0.0795
     22 C          16.9108   70.8502   -7.5398 C.ar    1  UNL1        0.2626
     23 H          17.3915   69.8315   -9.2578 H       1  UNL1        0.1734
     24 O          22.1059   72.5715   -4.1720 O.3     1  UNL1       -0.2703
     25 P          22.2532   71.3076   -3.1753 P.3     1  UNL1        0.2208
     26 O          21.9657   71.9484   -1.7183 O.3     1  UNL1       -0.4371
     27 O          23.5651   70.5849   -3.2868 O.2     1  UNL1       -0.5170
     28 O          20.9598   70.3925   -3.4815 O.3     1  UNL1       -0.2858
     29 O          19.4401   71.3835   -1.9624 O.3     1  UNL1       -0.3226
     30 O          16.9160   69.1203   -4.3679 O.3     1  UNL1       -0.3794
     31 O          19.4908   68.0550   -3.5070 O.3     1  UNL1       -0.3775
     32 O          16.6242   71.0166   -2.3807 O.3     1  UNL1       -0.3792
     33 C          18.0331   69.9318   -4.0158 C.3     1  UNL1        0.1718
     34 C          18.8944   69.2273   -2.9622 C.3     1  UNL1        0.1968
     35 C          17.5220   71.2668   -3.4672 C.3     1  UNL1        0.1723
     36 C          19.9996   70.1603   -2.4518 C.3     1  UNL1        0.2706
     37 C          18.6979   72.0940   -2.9523 C.3     1  UNL1        0.1830
     38 H          16.3991   69.6056   -5.0334 H       1  UNL1        0.2105
     39 H          20.0322   67.6496   -2.8088 H       1  UNL1        0.2106
     40 H          17.1441   70.7352   -1.6089 H       1  UNL1        0.2106
     41 O          17.2059   73.9043   -2.9778 O.co2   1  UNL1       -0.5466
     42 O          18.7082   73.8212   -1.2651 O.co2   1  UNL1       -0.5466
     43 C          18.2336   73.3516   -2.2892 C.2     1  UNL1        0.0799
@<TRIPOS>UNITY_ATOM_ATTR
41 1
charge -1
@<TRIPOS>BOND
     1     1     4    1
     2     1    24    1
     3     1     2    1
     4     1     3    2
     5    25    28    1
     6    25    24    1
     7    25    26    1
     8    25    27    2
     9     6    11    1
    10     6    12    1
    11    29    36    1
    12    29    37    1
    13     7     9    1
    14     7    13    1
    15     8    10    1
    16     8    14    1
    17     4     5    1
    18    28    36    1
    19    30    33    1
    20    30    38    1
    21    31    34    1
    22    31    39    1
    23    32    35    1
    24    32    40    1
    25    41    43   ar
    26    15    19    2
    27    42    43   ar
    28    16    22    2
    29    17    12    1
    30    17    19   ar
    31    17    20   ar
    32    18    19   ar
    33    18    22   ar
    34    18    23    1
    35     9    10    1
    36     9    11    1
    37    10    12    1
    38    11     5    1
    39    33    34    1
    40    33    35    1
    41    34    36    1
    42    35    37    1
    43    37    43    1
    44    20    21   ar
    45    21    22   ar
@<TRIPOS>MOLECULE
UDP-glaA
 43 45 0 0 0
SMALL
GASTEIGER

@<TRIPOS>ATOM
      1 P          21.4737   73.2600   -6.1016 P.3     1  UNL1        0.2189
      2 O          21.1528   74.8457   -6.0951 O.3     1  UNL1       -0.4371
      3 O          22.8770   72.8999   -6.4930 O.2     1  UNL1       -0.5170
      4 O          20.3033   72.6292   -7.0224 O.3     1  UNL1       -0.3112
      5 C          19.9955   71.2531   -6.8782 C.3     1  UNL1        0.1811
      6 O          17.7334   70.9593   -7.6339 O.3     1  UNL1       -0.3308
      7 O          18.8637   70.9237  -10.4110 O.3     1  UNL1       -0.3794
      8 O          17.8878   73.4610  -10.1978 O.3     1  UNL1       -0.3779
      9 C          19.2750   71.6887   -9.2783 C.3     1  UNL1        0.1713
     10 C          18.2877   72.8054   -9.0121 C.3     1  UNL1        0.1895
     11 C          19.1129   70.8179   -8.0393 C.3     1  UNL1        0.1764
     12 C          17.1445   72.0629   -8.3414 C.3     1  UNL1        0.2383
     13 H          19.5030   70.1989  -10.5189 H       1  UNL1        0.2105
     14 H          18.6890   73.8144  -10.6213 H       1  UNL1        0.2106
     15 O          14.9418   73.6948   -9.0200 O.2     1  UNL1       -0.2464
     16 O          14.4735   75.1813   -4.6830 O.2     1  UNL1       -0.2670
     17 N          16.4279   72.8861   -7.4097 N.ar    1  UNL1       -0.2551
     18 N          14.7104   74.4343   -6.8600 N.ar    1  UNL1       -0.2743
     19 C          15.3363   73.6690   -7.8528 C.ar    1  UNL1        0.3323
     20 C          16.8086   72.9126   -6.0726 C.ar    1  UNL1        0.0869
     21 C          16.2014   73.6472   -5.1381 C.ar    1  UNL1        0.0795
     22 C          15.0531   74.4937   -5.5181 C.ar    1  UNL1        0.2626
     23 H          13.9234   75.0055   -7.1558 H       1  UNL1        0.1734
     24 O          21.0510   72.7987   -4.6104 O.3     1  UNL1       -0.2703
     25 P          21.8081   71.8562   -3.5376 P.3     1  UNL1        0.2208
     26 O          23.3689   72.0363   -3.9217 O.3     1  UNL1       -0.4371
     27 O          21.3329   70.4314   -3.5259 O.2     1  UNL1       -0.5170
     28 O          21.6427   72.6256   -2.1288 O.3     1  UNL1       -0.2858
     29 O          21.2436   71.0113   -0.4453 O.3     1  UNL1       -0.3226
     30 O          21.0941   74.5664    1.7038 O.3     1  UNL1       -0.3794
     31 O          19.8741   74.3801   -0.9387 O.3     1  UNL1       -0.3775
     32 O          21.1042   71.8672    2.2909 O.3     1  UNL1       -0.3792
     33 C          21.5078   73.6414    0.7020 C.3     1  UNL1        0.1718
     34 C          20.3236   73.2552   -0.1906 C.3     1  UNL1        0.1968
     35 C          22.0780   72.3948    1.3841 C.3     1  UNL1        0.1723
     36 C          20.7172   72.1340   -1.1603 C.3     1  UNL1        0.2706
     37 C          22.3955   71.3341    0.3323 C.3     1  UNL1        0.1830
     38 H          21.8730   74.7802    2.2453 H       1  UNL1        0.2105
     39 H          19.1325   74.0858   -1.4939 H       1  UNL1        0.2106
     40 H          20.4015   71.4379    1.7740 H       1  UNL1        0.2106
     41 O          22.4446   68.9916    0.2145 O.co2   1  UNL1       -0.5466
     42 O          23.4600   69.9623    2.0100 O.co2   1  UNL1       -0.5466
     43 C          22.8338   70.0511    0.9639 C.2     1  UNL1        0.0799
@<TRIPOS>UNITY_ATOM_ATTR
41 1
charge -1
@<TRIPOS>BOND
     1     1     4    1
     2     1    24    1
     3     1     2    1
     4     1     3    2
     5    25    28    1
     6    25    24    1
     7    25    26    1
     8    25    27    2
     9     6    11    1
    10     6    12    1
    11    29    36    1
    12    29    37    1
    13     7     9    1
    14     7    13    1
    15     8    10    1
    16     8    14    1
    17     4     5    1
    18    28    36    1
    19    30    33    1
    20    30    38    1
    21    31    34    1
    22    31    39    1
    23    32    35    1
    24    32    40    1
    25    41    43   ar
    26    15    19    2
    27    42    43   ar
    28    16    22    2
    29    17    12    1
    30    17    19   ar
    31    17    20   ar
    32    18    19   ar
    33    18    22   ar
    34    18    23    1
    35     9    10    1
    36     9    11    1
    37    10    12    1
    38    11     5    1
    39    33    34    1
    40    33    35    1
    41    34    36    1
    42    35    37    1
    43    37    43    1
    44    20    21   ar
    45    21    22   ar
@<TRIPOS>MOLECULE
UDP-glaA
 43 45 0 0 0
SMALL
GASTEIGER

@<TRIPOS>ATOM
      1 P          21.6443   71.0190   -1.1860 P.3     1  UNL1        0.2189
      2 O          23.1842   70.5439   -1.3290 O.3     1  UNL1       -0.4371
      3 O          20.6495   69.9052   -1.0372 O.2     1  UNL1       -0.5170
      4 O          21.4191   71.9978   -2.4536 O.3     1  UNL1       -0.3112
      5 C          22.0430   71.6685   -3.6830 C.3     1  UNL1        0.1811
      6 O          22.6963   72.7457   -5.7293 O.3     1  UNL1       -0.3308
      7 O          22.5870   75.3176   -4.1915 O.3     1  UNL1       -0.3794
      8 O          20.2315   75.3445   -5.5651 O.3     1  UNL1       -0.3779
      9 C          21.7538   74.1637   -4.0821 C.3     1  UNL1        0.1713
     10 C          20.8025   74.0895   -5.2577 C.3     1  UNL1        0.1895
     11 C          22.6247   72.9332   -4.2986 C.3     1  UNL1        0.1764
     12 C          21.7070   73.5728   -6.3636 C.3     1  UNL1        0.2383
     13 H          23.2039   75.3019   -3.4400 H       1  UNL1        0.2105
     14 H          19.7620   75.6546   -4.7717 H       1  UNL1        0.2106
     15 O          19.7809   71.6087   -5.7250 O.2     1  UNL1       -0.2464
     16 O          19.0410   70.6282  -10.1668 O.2     1  UNL1       -0.2670
     17 N          20.9953   72.7898   -7.3330 N.ar    1  UNL1       -0.2551
     18 N          19.4141   71.1213   -7.9372 N.ar    1  UNL1       -0.2743
     19 C          20.0488   71.8286   -6.9076 C.ar    1  UNL1        0.3323
     20 C          21.2381   72.9777   -8.6892 C.ar    1  UNL1        0.0869
     21 C          20.6243   72.2958   -9.6588 C.ar    1  UNL1        0.0795
     22 C          19.6225   71.2727   -9.2994 C.ar    1  UNL1        0.2626
     23 H          18.7301   70.4246   -7.6548 H       1  UNL1        0.1734
     24 O          21.6964   72.0466    0.0615 O.3     1  UNL1       -0.2703
     25 P          22.2278   73.5700    0.1588 P.3     1  UNL1        0.2208
     26 O          21.0124   74.4282   -0.4756 O.3     1  UNL1       -0.4371
     27 O          23.5588   73.8012   -0.4976 O.2     1  UNL1       -0.5170
     28 O          22.1927   73.9155    1.7347 O.3     1  UNL1       -0.2858
     29 O          23.8394   73.5362    3.3911 O.3     1  UNL1       -0.3226
     30 O          20.3164   73.1922    5.5704 O.3     1  UNL1       -0.3794
     31 O          20.5212   72.0494    2.8949 O.3     1  UNL1       -0.3775
     32 O          23.0193   73.2924    6.1309 O.3     1  UNL1       -0.3792
     33 C          21.2137   73.6676    4.5708 C.3     1  UNL1        0.1718
     34 C          21.6358   72.5229    3.6435 C.3     1  UNL1        0.1968
     35 C          22.4445   74.2681    5.2554 C.3     1  UNL1        0.1723
     36 C          22.7302   72.9851    2.6735 C.3     1  UNL1        0.2706
     37 C          23.4806   74.6540    4.2019 C.3     1  UNL1        0.1830
     38 H          20.0784   73.9478    6.1343 H       1  UNL1        0.2105
     39 H          20.8379   71.3345    2.3175 H       1  UNL1        0.2106
     40 H          23.4699   72.6207    5.5915 H       1  UNL1        0.2106
     41 O          24.7150   76.4634    5.0422 O.co2   1  UNL1       -0.5466
     42 O          25.6987   74.4085    5.1237 O.co2   1  UNL1       -0.5466
     43 C          24.7524   75.1255    4.8322 C.2     1  UNL1        0.0799
@<TRIPOS>UNITY_ATOM_ATTR
41 1
charge -1
@<TRIPOS>BOND
     1     1     4    1
     2     1    24    1
     3     1     2    1
     4     1     3    2
     5    25    28    1
     6    25    24    1
     7    25    26    1
     8    25    27    2
     9     6    11    1
    10     6    12    1
    11    29    36    1
    12    29    37    1
    13     7     9    1
    14     7    13    1
    15     8    10    1
    16     8    14    1
    17     4     5    1
    18    28    36    1
    19    30    33    1
    20    30    38    1
    21    31    34    1
    22    31    39    1
    23    32    35    1
    24    32    40    1
    25    41    43   ar
    26    15    19    2
    27    42    43   ar
    28    16    22    2
    29    17    12    1
    30    17    19   ar
    31    17    20   ar
    32    18    19   ar
    33    18    22   ar
    34    18    23    1
    35     9    10    1
    36     9    11    1
    37    10    12    1
    38    11     5    1
    39    33    34    1
    40    33    35    1
    41    34    36    1
    42    35    37    1
    43    37    43    1
    44    20    21   ar
    45    21    22   ar
@<TRIPOS>MOLECULE
UDP-glaA
 43 45 0 0 0
SMALL
GASTEIGER

@<TRIPOS>ATOM
      1 P          21.2397   73.7195   -1.8695 P.3     1  UNL1        0.2189
      2 O          21.2375   73.9007   -0.2618 O.3     1  UNL1       -0.4371
      3 O          20.3725   74.6898   -2.6169 O.2     1  UNL1       -0.5170
      4 O          20.8920   72.1550   -2.0858 O.3     1  UNL1       -0.3112
      5 C          20.2992   71.7557   -3.3099 C.3     1  UNL1        0.1811
      6 O          18.3249   72.4434   -4.4945 O.3     1  UNL1       -0.3308
      7 O          16.7754   70.9946   -2.3752 O.3     1  UNL1       -0.3794
      8 O          16.7448   69.2251   -4.4497 O.3     1  UNL1       -0.3779
      9 C          18.0309   70.6580   -2.9653 C.3     1  UNL1        0.1713
     10 C          17.8264   70.1303   -4.3696 C.3     1  UNL1        0.1895
     11 C          18.7926   71.9522   -3.2189 C.3     1  UNL1        0.1764
     12 C          17.5784   71.4075   -5.1540 C.3     1  UNL1        0.2383
     13 H          16.9587   71.3636   -1.4944 H       1  UNL1        0.2105
     14 H          16.9312   68.4916   -3.8387 H       1  UNL1        0.2106
     15 O          16.0569   70.2730   -7.2453 O.2     1  UNL1       -0.2464
     16 O          19.3732   71.0807  -10.3419 O.2     1  UNL1       -0.2670
     17 N          18.0193   71.3088   -6.5160 N.ar    1  UNL1       -0.2551
     18 N          17.7095   70.6755   -8.7858 N.ar    1  UNL1       -0.2743
     19 C          17.1788   70.7205   -7.4898 C.ar    1  UNL1        0.3323
     20 C          19.2726   71.7918   -6.8756 C.ar    1  UNL1        0.0869
     21 C          19.7640   71.7420   -8.1157 C.ar    1  UNL1        0.0795
     22 C          18.9501   71.1423   -9.1916 C.ar    1  UNL1        0.2626
     23 H          17.1230   70.2562   -9.5022 H       1  UNL1        0.1734
     24 O          22.8117   73.7969   -2.2407 O.3     1  UNL1       -0.2703
     25 P          23.5770   73.6257   -3.6541 P.3     1  UNL1        0.2208
     26 O          23.5552   72.0267   -3.8966 O.3     1  UNL1       -0.4371
     27 O          24.9472   74.2398   -3.6910 O.2     1  UNL1       -0.5170
     28 O          22.5510   74.2189   -4.7492 O.3     1  UNL1       -0.2858
     29 O          23.3232   75.0130   -6.8402 O.3     1  UNL1       -0.3226
     30 O          19.5904   76.8185   -6.5475 O.3     1  UNL1       -0.3794
     31 O          21.3373   76.6414   -4.2188 O.3     1  UNL1       -0.3775
     32 O          21.5393   76.5455   -8.4858 O.3     1  UNL1       -0.3792
     33 C          20.5955   75.8220   -6.3833 C.3     1  UNL1        0.1718
     34 C          21.7599   76.3694   -5.5508 C.3     1  UNL1        0.1968
     35 C          21.0962   75.3912   -7.7646 C.3     1  UNL1        0.1723
     36 C          22.9195   75.3664   -5.5132 C.3     1  UNL1        0.2706
     37 C          22.2715   74.4289   -7.6074 C.3     1  UNL1        0.1830
     38 H          18.8763   76.4298   -7.0810 H       1  UNL1        0.2105
     39 H          22.1075   76.9756   -3.7291 H       1  UNL1        0.2106
     40 H          22.3879   76.8368   -8.1113 H       1  UNL1        0.2106
     41 O          24.1978   74.3802   -8.9456 O.co2   1  UNL1       -0.5466
     42 O          22.2691   73.5950   -9.8733 O.co2   1  UNL1       -0.5466
     43 C          22.8761   74.0827   -8.9309 C.2     1  UNL1        0.0799
@<TRIPOS>UNITY_ATOM_ATTR
41 1
charge -1
@<TRIPOS>BOND
     1     1     4    1
     2     1    24    1
     3     1     2    1
     4     1     3    2
     5    25    28    1
     6    25    24    1
     7    25    26    1
     8    25    27    2
     9     6    11    1
    10     6    12    1
    11    29    36    1
    12    29    37    1
    13     7     9    1
    14     7    13    1
    15     8    10    1
    16     8    14    1
    17     4     5    1
    18    28    36    1
    19    30    33    1
    20    30    38    1
    21    31    34    1
    22    31    39    1
    23    32    35    1
    24    32    40    1
    25    41    43   ar
    26    15    19    2
    27    42    43   ar
    28    16    22    2
    29    17    12    1
    30    17    19   ar
    31    17    20   ar
    32    18    19   ar
    33    18    22   ar
    34    18    23    1
    35     9    10    1
    36     9    11    1
    37    10    12    1
    38    11     5    1
    39    33    34    1
    40    33    35    1
    41    34    36    1
    42    35    37    1
    43    37    43    1
    44    20    21   ar
    45    21    22   ar
@<TRIPOS>MOLECULE
UDP-glaA
 43 45 0 0 0
SMALL
GASTEIGER

@<TRIPOS>ATOM
      1 P          21.6634   73.3880   -5.9144 P.3     1  UNL1        0.2189
      2 O          21.1260   74.8125   -6.4616 O.3     1  UNL1       -0.4371
      3 O          22.7265   72.7464   -6.7571 O.2     1  UNL1       -0.5170
      4 O          20.3161   72.5193   -5.7009 O.3     1  UNL1       -0.3112
      5 C          20.4189   71.2535   -5.0712 C.3     1  UNL1        0.1811
      6 O          18.3200   72.1103   -4.2745 O.3     1  UNL1       -0.3308
      7 O          18.1502   69.6227   -2.6087 O.3     1  UNL1       -0.3794
      8 O          16.5014   69.0502   -4.7038 O.3     1  UNL1       -0.3779
      9 C          18.6799   69.7952   -3.9230 C.3     1  UNL1        0.1713
     10 C          17.5565   69.9632   -4.9242 C.3     1  UNL1        0.1895
     11 C          19.3631   71.1553   -3.9793 C.3     1  UNL1        0.1764
     12 C          17.1391   71.4053   -4.6912 C.3     1  UNL1        0.2383
     13 H          18.9044   69.5587   -1.9984 H       1  UNL1        0.2105
     14 H          16.8733   68.1533   -4.7631 H       1  UNL1        0.2106
     15 O          17.7084   70.5446   -7.3200 O.2     1  UNL1       -0.2464
     16 O          15.0916   73.8580   -9.1672 O.2     1  UNL1       -0.2670
     17 N          16.6198   72.0241   -5.8773 N.ar    1  UNL1       -0.2551
     18 N          16.4054   72.1954   -8.2381 N.ar    1  UNL1       -0.2743
     19 C          16.9678   71.5149   -7.1502 C.ar    1  UNL1        0.3323
     20 C          15.7752   73.1237   -5.7725 C.ar    1  UNL1        0.0869
     21 C          15.2467   73.7613   -6.8193 C.ar    1  UNL1        0.0795
     22 C          15.5608   73.2934   -8.1839 C.ar    1  UNL1        0.2626
     23 H          16.6423   71.8471   -9.1632 H       1  UNL1        0.1734
     24 O          22.1187   73.7298   -4.4007 O.3     1  UNL1       -0.2703
     25 P          23.2889   73.1031   -3.4785 P.3     1  UNL1        0.2208
     26 O          24.5948   73.9568   -3.9049 O.3     1  UNL1       -0.4371
     27 O          23.4493   71.6158   -3.6131 O.2     1  UNL1       -0.5170
     28 O          22.9438   73.6038   -1.9838 O.3     1  UNL1       -0.2858
     29 O          21.6887   71.8583   -0.9952 O.3     1  UNL1       -0.3226
     30 O          22.0089   74.5793    2.1310 O.3     1  UNL1       -0.3794
     31 O          21.5018   75.5008   -0.5893 O.3     1  UNL1       -0.3775
     32 O          21.1045   71.9889    1.8120 O.3     1  UNL1       -0.3792
     33 C          22.3849   73.8534    0.9640 C.3     1  UNL1        0.1718
     34 C          21.4083   74.1399   -0.1816 C.3     1  UNL1        0.1968
     35 C          22.3854   72.3574    1.2901 C.3     1  UNL1        0.1723
     36 C          21.7020   73.2355   -1.3850 C.3     1  UNL1        0.2706
     37 C          22.6468   71.5548    0.0175 C.3     1  UNL1        0.1830
     38 H          22.6515   74.3661    2.8289 H       1  UNL1        0.2105
     39 H          20.8743   75.6319   -1.3200 H       1  UNL1        0.2106
     40 H          20.4651   71.9748    1.0798 H       1  UNL1        0.2106
     41 O          23.7333   69.4789    0.1368 O.co2   1  UNL1       -0.5466
     42 O          21.4905   69.5018    0.5446 O.co2   1  UNL1       -0.5466
     43 C          22.5279   70.0843    0.2637 C.2     1  UNL1        0.0799
@<TRIPOS>UNITY_ATOM_ATTR
41 1
charge -1
@<TRIPOS>BOND
     1     1     4    1
     2     1    24    1
     3     1     2    1
     4     1     3    2
     5    25    28    1
     6    25    24    1
     7    25    26    1
     8    25    27    2
     9     6    11    1
    10     6    12    1
    11    29    36    1
    12    29    37    1
    13     7     9    1
    14     7    13    1
    15     8    10    1
    16     8    14    1
    17     4     5    1
    18    28    36    1
    19    30    33    1
    20    30    38    1
    21    31    34    1
    22    31    39    1
    23    32    35    1
    24    32    40    1
    25    41    43   ar
    26    15    19    2
    27    42    43   ar
    28    16    22    2
    29    17    12    1
    30    17    19   ar
    31    17    20   ar
    32    18    19   ar
    33    18    22   ar
    34    18    23    1
    35     9    10    1
    36     9    11    1
    37    10    12    1
    38    11     5    1
    39    33    34    1
    40    33    35    1
    41    34    36    1
    42    35    37    1
    43    37    43    1
    44    20    21   ar
    45    21    22   ar
@<TRIPOS>MOLECULE
UDP-glaA
 43 45 0 0 0
SMALL
GASTEIGER

@<TRIPOS>ATOM
      1 P          21.7310   70.9125   -1.0041 P.3     1  UNL1        0.2189
      2 O          23.3102   70.5707   -1.0860 O.3     1  UNL1       -0.4371
      3 O          20.8382   69.7285   -0.7736 O.2     1  UNL1       -0.5170
      4 O          21.4445   71.7568   -2.3534 O.3     1  UNL1       -0.3112
      5 C          20.6660   71.1574   -3.3751 C.3     1  UNL1        0.1811
      6 O          18.8582   72.2768   -4.4945 O.3     1  UNL1       -0.3308
      7 O          17.0670   71.0560   -2.4226 O.3     1  UNL1       -0.3794
      8 O          16.6769   69.4324   -4.5784 O.3     1  UNL1       -0.3779
      9 C          18.2283   70.5097   -3.0477 C.3     1  UNL1        0.1713
     10 C          17.9157   70.1029   -4.4722 C.3     1  UNL1        0.1895
     11 C          19.2280   71.6406   -3.2512 C.3     1  UNL1        0.1764
     12 C          17.9187   71.4414   -5.1908 C.3     1  UNL1        0.2383
     13 H          17.3246   71.3376   -1.5282 H       1  UNL1        0.2105
     14 H          16.7191   68.6471   -4.0060 H       1  UNL1        0.2106
     15 O          20.0991   72.8260   -6.3328 O.2     1  UNL1       -0.2464
     16 O          19.3778   70.9229  -10.4676 O.2     1  UNL1       -0.2670
     17 N          18.3234   71.3262   -6.5627 N.ar    1  UNL1       -0.2551
     18 N          19.7382   71.8778   -8.3911 N.ar    1  UNL1       -0.2743
     19 C          19.4321   72.0657   -7.0368 C.ar    1  UNL1        0.3323
     20 C          17.6242   70.4875   -7.4236 C.ar    1  UNL1        0.0869
     21 C          17.9288   70.3188   -8.7122 C.ar    1  UNL1        0.0795
     22 C          19.0722   71.0553   -9.2865 C.ar    1  UNL1        0.2626
     23 H          20.5312   72.3999   -8.7540 H       1  UNL1        0.1734
     24 O          21.6642   72.0415    0.1518 O.3     1  UNL1       -0.2703
     25 P          22.2428   73.5501    0.1950 P.3     1  UNL1        0.2208
     26 O          21.0476   74.4248   -0.4550 O.3     1  UNL1       -0.4371
     27 O          23.5732   73.7192   -0.4811 O.2     1  UNL1       -0.5170
     28 O          22.2348   73.9465    1.7593 O.3     1  UNL1       -0.2858
     29 O          23.8614   73.6136    3.4453 O.3     1  UNL1       -0.3226
     30 O          20.3111   73.2609    5.5785 O.3     1  UNL1       -0.3794
     31 O          20.5689   72.0786    2.9248 O.3     1  UNL1       -0.3775
     32 O          23.0041   73.4031    6.1765 O.3     1  UNL1       -0.3792
     33 C          21.2172   73.7314    4.5845 C.3     1  UNL1        0.1718
     34 C          21.6666   72.5775    3.6818 C.3     1  UNL1        0.1968
     35 C          22.4306   74.3578    5.2772 C.3     1  UNL1        0.1723
     36 C          22.7696   73.0377    2.7206 C.3     1  UNL1        0.2706
     37 C          23.4773   74.7396    4.2329 C.3     1  UNL1        0.1830
     38 H          20.0558   74.0224    6.1267 H       1  UNL1        0.2105
     39 H          20.9027   71.3586    2.3635 H       1  UNL1        0.2106
     40 H          23.4706   72.7285    5.6545 H       1  UNL1        0.2106
     41 O          24.6530   76.5668    5.1176 O.co2   1  UNL1       -0.5466
     42 O          25.7036   74.5439    5.1466 O.co2   1  UNL1       -0.5466
     43 C          24.7340   75.2365    4.8739 C.2     1  UNL1        0.0799
@<TRIPOS>UNITY_ATOM_ATTR
41 1
charge -1
@<TRIPOS>BOND
     1     1     4    1
     2     1    24    1
     3     1     2    1
     4     1     3    2
     5    25    28    1
     6    25    24    1
     7    25    26    1
     8    25    27    2
     9     6    11    1
    10     6    12    1
    11    29    36    1
    12    29    37    1
    13     7     9    1
    14     7    13    1
    15     8    10    1
    16     8    14    1
    17     4     5    1
    18    28    36    1
    19    30    33    1
    20    30    38    1
    21    31    34    1
    22    31    39    1
    23    32    35    1
    24    32    40    1
    25    41    43   ar
    26    15    19    2
    27    42    43   ar
    28    16    22    2
    29    17    12    1
    30    17    19   ar
    31    17    20   ar
    32    18    19   ar
    33    18    22   ar
    34    18    23    1
    35     9    10    1
    36     9    11    1
    37    10    12    1
    38    11     5    1
    39    33    34    1
    40    33    35    1
    41    34    36    1
    42    35    37    1
    43    37    43    1
    44    20    21   ar
    45    21    22   ar
@<TRIPOS>MOLECULE
UDP-glaA
 43 45 0 0 0
SMALL
GASTEIGER

@<TRIPOS>ATOM
      1 P          23.4252   74.1832   -3.8386 P.3     1  UNL1        0.2189
      2 O          23.8708   72.6372   -3.6690 O.3     1  UNL1       -0.4371
      3 O          24.4662   75.0793   -4.4432 O.2     1  UNL1       -0.5170
      4 O          22.9060   74.6030   -2.3656 O.3     1  UNL1       -0.3112
      5 C          23.5369   75.6893   -1.7091 C.3     1  UNL1        0.1811
      6 O          21.9016   74.9349   -0.1183 O.3     1  UNL1       -0.3308
      7 O          22.8189   77.2009    1.6181 O.3     1  UNL1       -0.3794
      8 O          24.0873   75.0539    2.7215 O.3     1  UNL1       -0.3779
      9 C          23.5793   76.3698    0.7413 C.3     1  UNL1        0.1713
     10 C          23.7619   74.9946    1.3481 C.3     1  UNL1        0.1895
     11 C          22.7218   76.0676   -0.4806 C.3     1  UNL1        0.1764
     12 C          22.4067   74.3558    1.0961 C.3     1  UNL1        0.2383
     13 H          22.6946   78.0558    1.1717 H       1  UNL1        0.2105
     14 H          24.9073   75.5703    2.8060 H       1  UNL1        0.2106
     15 O          22.4869   72.5093    3.2314 O.2     1  UNL1       -0.2464
     16 O          22.7408   68.9168    0.3559 O.2     1  UNL1       -0.2670
     17 N          22.4931   72.9326    0.9344 N.ar    1  UNL1       -0.2551
     18 N          22.6138   70.7216    1.7981 N.ar    1  UNL1       -0.2743
     19 C          22.5282   72.0930    2.0722 C.ar    1  UNL1        0.3323
     20 C          22.5423   72.3817   -0.3414 C.ar    1  UNL1        0.0869
     21 C          22.6234   71.0720   -0.5862 C.ar    1  UNL1        0.0795
     22 C          22.6657   70.1267    0.5470 C.ar    1  UNL1        0.2626
     23 H          22.6410   70.0990    2.6010 H       1  UNL1        0.1734
     24 O          22.0543   74.0739   -4.6894 O.3     1  UNL1       -0.2703
     25 P          21.7976   74.0212   -6.2843 P.3     1  UNL1        0.2208
     26 O          22.7661   72.8230   -6.7767 O.3     1  UNL1       -0.4371
     27 O          22.0223   75.3289   -6.9880 O.2     1  UNL1       -0.5170
     28 O          20.3044   73.4290   -6.4389 O.3     1  UNL1       -0.2858
     29 O          19.0489   71.4246   -6.5123 O.3     1  UNL1       -0.3226
     30 O          18.1227   73.1670  -10.1709 O.3     1  UNL1       -0.3794
     31 O          20.8495   73.2478   -9.1394 O.3     1  UNL1       -0.3775
     32 O          17.2421   71.0000   -8.7018 O.3     1  UNL1       -0.3792
     33 C          18.4501   73.0901   -8.7863 C.3     1  UNL1        0.1718
     34 C          19.8193   72.4285   -8.5968 C.3     1  UNL1        0.1968
     35 C          17.3710   72.2763   -8.0667 C.3     1  UNL1        0.1723
     36 C          20.1041   72.1855   -7.1095 C.3     1  UNL1        0.2706
     37 C          17.7761   72.0617   -6.6100 C.3     1  UNL1        0.1830
     38 H          17.2497   73.5891  -10.2429 H       1  UNL1        0.2105
     39 H          21.6956   72.7939   -8.9879 H       1  UNL1        0.2106
     40 H          18.0125   70.4571   -8.4633 H       1  UNL1        0.2106
     41 O          16.0813   71.8593   -5.0005 O.co2   1  UNL1       -0.5466
     42 O          16.6969   69.9619   -6.1040 O.co2   1  UNL1       -0.5466
     43 C          16.8142   71.1618   -5.9015 C.2     1  UNL1        0.0799
@<TRIPOS>UNITY_ATOM_ATTR
41 1
charge -1
@<TRIPOS>BOND
     1     1     4    1
     2     1    24    1
     3     1     2    1
     4     1     3    2
     5    25    28    1
     6    25    24    1
     7    25    26    1
     8    25    27    2
     9     6    11    1
    10     6    12    1
    11    29    36    1
    12    29    37    1
    13     7     9    1
    14     7    13    1
    15     8    10    1
    16     8    14    1
    17     4     5    1
    18    28    36    1
    19    30    33    1
    20    30    38    1
    21    31    34    1
    22    31    39    1
    23    32    35    1
    24    32    40    1
    25    41    43   ar
    26    15    19    2
    27    42    43   ar
    28    16    22    2
    29    17    12    1
    30    17    19   ar
    31    17    20   ar
    32    18    19   ar
    33    18    22   ar
    34    18    23    1
    35     9    10    1
    36     9    11    1
    37    10    12    1
    38    11     5    1
    39    33    34    1
    40    33    35    1
    41    34    36    1
    42    35    37    1
    43    37    43    1
    44    20    21   ar
    45    21    22   ar
@<TRIPOS>MOLECULE
UDP-glaA
 43 45 0 0 0
SMALL
GASTEIGER

@<TRIPOS>ATOM
      1 P          18.9345   70.8104   -3.6770 P.3     1  UNL1        0.2189
      2 O          18.2132   69.8261   -2.6149 O.3     1  UNL1       -0.4371
      3 O          18.5845   72.2626   -3.5331 O.2     1  UNL1       -0.5170
      4 O          18.6006   70.1460   -5.1132 O.3     1  UNL1       -0.3112
      5 C          19.1515   70.7373   -6.2777 C.3     1  UNL1        0.1811
      6 O          18.8268   73.0549   -6.8235 O.3     1  UNL1       -0.3308
      7 O          16.5064   72.1441   -8.4902 O.3     1  UNL1       -0.3794
      8 O          18.4583   72.5403  -10.3527 O.3     1  UNL1       -0.3779
      9 C          17.7630   71.5052   -8.2656 C.3     1  UNL1        0.1713
     10 C          18.8570   72.2120   -9.0378 C.3     1  UNL1        0.1895
     11 C          18.1717   71.7672   -6.8220 C.3     1  UNL1        0.1764
     12 C          19.1064   73.4404   -8.1794 C.3     1  UNL1        0.2383
     13 H          15.8454   71.6826   -7.9465 H       1  UNL1        0.2105
     14 H          18.2127   71.7119  -10.7995 H       1  UNL1        0.2106
     15 O          21.3679   71.7494   -8.2144 O.2     1  UNL1       -0.2464
     16 O          24.2632   75.3233   -8.5028 O.2     1  UNL1       -0.2670
     17 N          20.4626   73.9019   -8.2636 N.ar    1  UNL1       -0.2551
     18 N          22.8082   73.5302   -8.3575 N.ar    1  UNL1       -0.2743
     19 C          21.5267   72.9700   -8.2733 C.ar    1  UNL1        0.3323
     20 C          20.7277   75.2650   -8.3353 C.ar    1  UNL1        0.0869
     21 C          21.9552   75.7833   -8.4156 C.ar    1  UNL1        0.0795
     22 C          23.1217   74.8786   -8.4304 C.ar    1  UNL1        0.2626
     23 H          23.5886   72.8791   -8.3654 H       1  UNL1        0.1734
     24 O          20.5033   70.4727   -3.4766 O.3     1  UNL1       -0.2703
     25 P          21.7921   71.4428   -3.3746 P.3     1  UNL1        0.2208
     26 O          21.6586   72.3766   -4.6885 O.3     1  UNL1       -0.4371
     27 O          23.1020   70.7169   -3.2604 O.2     1  UNL1       -0.5170
     28 O          21.4658   72.4277   -2.1387 O.3     1  UNL1       -0.2858
     29 O          21.2375   70.8981   -0.3477 O.3     1  UNL1       -0.3226
     30 O          21.1851   74.5587    1.6212 O.3     1  UNL1       -0.3794
     31 O          19.7613   74.2122   -0.9004 O.3     1  UNL1       -0.3775
     32 O          21.2997   71.8949    2.3432 O.3     1  UNL1       -0.3792
     33 C          21.5367   73.5893    0.6379 C.3     1  UNL1        0.1718
     34 C          20.2932   73.1363   -0.1346 C.3     1  UNL1        0.1968
     35 C          22.1863   72.3904    1.3345 C.3     1  UNL1        0.1723
     36 C          20.6316   71.9723   -1.0743 C.3     1  UNL1        0.2706
     37 C          22.4408   71.2812    0.3161 C.3     1  UNL1        0.1830
     38 H          22.0002   74.8141    2.0860 H       1  UNL1        0.2105
     39 H          18.9840   73.8764   -1.3777 H       1  UNL1        0.2106
     40 H          20.5672   71.4270    1.9078 H       1  UNL1        0.2106
     41 O          22.7435   68.9583    0.1887 O.co2   1  UNL1       -0.5466
     42 O          23.4972   70.0017    2.0702 O.co2   1  UNL1       -0.5466
     43 C          22.9556   70.0411    0.9750 C.2     1  UNL1        0.0799
@<TRIPOS>UNITY_ATOM_ATTR
41 1
charge -1
@<TRIPOS>BOND
     1     1     4    1
     2     1    24    1
     3     1     2    1
     4     1     3    2
     5    25    28    1
     6    25    24    1
     7    25    26    1
     8    25    27    2
     9     6    11    1
    10     6    12    1
    11    29    36    1
    12    29    37    1
    13     7     9    1
    14     7    13    1
    15     8    10    1
    16     8    14    1
    17     4     5    1
    18    28    36    1
    19    30    33    1
    20    30    38    1
    21    31    34    1
    22    31    39    1
    23    32    35    1
    24    32    40    1
    25    41    43   ar
    26    15    19    2
    27    42    43   ar
    28    16    22    2
    29    17    12    1
    30    17    19   ar
    31    17    20   ar
    32    18    19   ar
    33    18    22   ar
    34    18    23    1
    35     9    10    1
    36     9    11    1
    37    10    12    1
    38    11     5    1
    39    33    34    1
    40    33    35    1
    41    34    36    1
    42    35    37    1
    43    37    43    1
    44    20    21   ar
    45    21    22   ar
@<TRIPOS>MOLECULE
UDP-glaA
 43 45 0 0 0
SMALL
GASTEIGER

@<TRIPOS>ATOM
      1 P          19.2211   76.0161   -3.0936 P.3     1  UNL1        0.2189
      2 O          18.3505   76.3113   -1.7623 O.3     1  UNL1       -0.4371
      3 O          19.6811   77.2384   -3.8329 O.2     1  UNL1       -0.5170
      4 O          18.3035   74.9870   -3.9390 O.3     1  UNL1       -0.3112
      5 C          18.8719   73.7567   -4.3540 C.3     1  UNL1        0.1811
      6 O          17.3393   72.0686   -5.1128 O.3     1  UNL1       -0.3308
      7 O          17.7686   70.7491   -2.4546 O.3     1  UNL1       -0.3794
      8 O          19.3587   69.2799   -4.1125 O.3     1  UNL1       -0.3779
      9 C          18.6985   71.4626   -3.2695 C.3     1  UNL1        0.1713
     10 C          19.1016   70.6238   -4.4638 C.3     1  UNL1        0.1895
     11 C          17.9561   72.6182   -3.9276 C.3     1  UNL1        0.1764
     12 C          17.8936   70.7686   -5.3736 C.3     1  UNL1        0.2383
     13 H          17.5099   71.3387   -1.7259 H       1  UNL1        0.2105
     14 H          20.0690   69.2819   -3.4478 H       1  UNL1        0.2106
     15 O          16.0468   70.2601   -7.4488 O.2     1  UNL1       -0.2464
     16 O          19.3375   70.4435  -10.6701 O.2     1  UNL1       -0.2670
     17 N          18.2401   70.6788   -6.7633 N.ar    1  UNL1       -0.2551
     18 N          17.6867   70.3512   -9.0514 N.ar    1  UNL1       -0.2743
     19 C          17.2370   70.4188   -7.7262 C.ar    1  UNL1        0.3323
     20 C          19.5619   70.8474   -7.1605 C.ar    1  UNL1        0.0869
     21 C          19.9747   70.7806   -8.4281 C.ar    1  UNL1        0.0795
     22 C          18.9903   70.5117   -9.4950 C.ar    1  UNL1        0.2626
     23 H          16.9830   70.1647   -9.7607 H       1  UNL1        0.1734
     24 O          20.4139   75.0723   -2.5446 O.3     1  UNL1       -0.2703
     25 P          21.8463   75.4441   -1.8945 P.3     1  UNL1        0.2208
     26 O          21.5356   76.7938   -1.0592 O.3     1  UNL1       -0.4371
     27 O          22.9604   75.5756   -2.8931 O.2     1  UNL1       -0.5170
     28 O          22.0901   74.3140   -0.7687 O.3     1  UNL1       -0.2858
     29 O          22.8079   72.0636   -0.6280 O.3     1  UNL1       -0.3226
     30 O          23.4918   72.9473   -4.6318 O.3     1  UNL1       -0.3794
     31 O          24.1102   74.9011   -2.5567 O.3     1  UNL1       -0.3775
     32 O          23.5511   70.6924   -3.0376 O.3     1  UNL1       -0.3792
     33 C          22.8527   72.9823   -3.3588 C.3     1  UNL1        0.1718
     34 C          23.8085   73.5344   -2.2959 C.3     1  UNL1        0.1968
     35 C          22.4163   71.5632   -2.9846 C.3     1  UNL1        0.1723
     36 C          23.1917   73.4162   -0.8966 C.3     1  UNL1        0.2706
     37 C          21.8575   71.5561   -1.5634 C.3     1  UNL1        0.1830
     38 H          22.8524   72.5899   -5.2714 H       1  UNL1        0.2105
     39 H          24.7085   75.2086   -1.8551 H       1  UNL1        0.2106
     40 H          24.1168   70.8750   -2.2683 H       1  UNL1        0.2106
     41 O          22.5525   69.6631   -0.3644 O.co2   1  UNL1       -0.5466
     42 O          20.5058   69.5655   -1.3637 O.co2   1  UNL1       -0.5466
     43 C          21.5383   70.1678   -1.1078 C.2     1  UNL1        0.0799
@<TRIPOS>UNITY_ATOM_ATTR
41 1
charge -1
@<TRIPOS>BOND
     1     1     4    1
     2     1    24    1
     3     1     2    1
     4     1     3    2
     5    25    28    1
     6    25    24    1
     7    25    26    1
     8    25    27    2
     9     6    11    1
    10     6    12    1
    11    29    36    1
    12    29    37    1
    13     7     9    1
    14     7    13    1
    15     8    10    1
    16     8    14    1
    17     4     5    1
    18    28    36    1
    19    30    33    1
    20    30    38    1
    21    31    34    1
    22    31    39    1
    23    32    35    1
    24    32    40    1
    25    41    43   ar
    26    15    19    2
    27    42    43   ar
    28    16    22    2
    29    17    12    1
    30    17    19   ar
    31    17    20   ar
    32    18    19   ar
    33    18    22   ar
    34    18    23    1
    35     9    10    1
    36     9    11    1
    37    10    12    1
    38    11     5    1
    39    33    34    1
    40    33    35    1
    41    34    36    1
    42    35    37    1
    43    37    43    1
    44    20    21   ar
    45    21    22   ar
@<TRIPOS>MOLECULE
UDP-glaA
 43 45 0 0 0
SMALL
GASTEIGER

@<TRIPOS>ATOM
      1 P          21.0925   75.2660   -5.3619 P.3     1  UNL1        0.2189
      2 O          20.0347   76.3215   -4.7419 O.3     1  UNL1       -0.4371
      3 O          22.1647   75.8734   -6.2183 O.2     1  UNL1       -0.5170
      4 O          20.1606   74.1580   -6.0827 O.3     1  UNL1       -0.3112
      5 C          20.1612   74.0898   -7.4985 C.3     1  UNL1        0.1811
      6 O          20.2369   71.8038   -6.7618 O.3     1  UNL1       -0.3308
      7 O          19.9406   71.0586   -9.6511 O.3     1  UNL1       -0.3794
      8 O          17.4133   70.7170   -8.6859 O.3     1  UNL1       -0.3779
      9 C          19.3615   72.1498   -8.9358 C.3     1  UNL1        0.1713
     10 C          18.2461   71.6566   -8.0384 C.3     1  UNL1        0.1895
     11 C          20.3873   72.6465   -7.9256 C.3     1  UNL1        0.1764
     12 C          19.0183   71.0509   -6.8787 C.3     1  UNL1        0.2383
     13 H          20.6735   71.4159  -10.1811 H       1  UNL1        0.2105
     14 H          17.0437   71.1486   -9.4754 H       1  UNL1        0.2106
     15 O          19.6195   69.5204   -4.5828 O.2     1  UNL1       -0.2464
     16 O          16.1877   71.4408   -2.1800 O.2     1  UNL1       -0.2670
     17 N          18.2989   71.1311   -5.6397 N.ar    1  UNL1       -0.2551
     18 N          17.9099   70.4773   -3.3880 N.ar    1  UNL1       -0.2743
     19 C          18.6809   70.3182   -4.5470 C.ar    1  UNL1        0.3323
     20 C          17.2271   72.0082   -5.5160 C.ar    1  UNL1        0.0869
     21 C          16.5021   72.1487   -4.4040 C.ar    1  UNL1        0.0795
     22 C          16.8349   71.3359   -3.2173 C.ar    1  UNL1        0.2626
     23 H          18.1660   69.9025   -2.5898 H       1  UNL1        0.1734
     24 O          21.6365   74.4871   -4.0532 O.3     1  UNL1       -0.2703
     25 P          23.0875   73.8572   -3.7210 P.3     1  UNL1        0.2208
     26 O          24.0658   75.1450   -3.7470 O.3     1  UNL1       -0.4371
     27 O          23.5018   72.7453   -4.6417 O.2     1  UNL1       -0.5170
     28 O          23.0050   73.4384   -2.1648 O.3     1  UNL1       -0.2858
     29 O          21.7714   71.7129   -1.1159 O.3     1  UNL1       -0.3226
     30 O          21.8247   74.6544    1.8207 O.3     1  UNL1       -0.3794
     31 O          21.4202   75.3633   -0.9792 O.3     1  UNL1       -0.3775
     32 O          21.0409   72.0117    1.6438 O.3     1  UNL1       -0.3792
     33 C          22.2879   73.8665    0.7276 C.3     1  UNL1        0.1718
     34 C          21.3600   74.0311   -0.4808 C.3     1  UNL1        0.1968
     35 C          22.3311   72.3980    1.1589 C.3     1  UNL1        0.1723
     36 C          21.7500   73.0592   -1.6014 C.3     1  UNL1        0.2706
     37 C          22.6883   71.5215   -0.0396 C.3     1  UNL1        0.1830
     38 H          22.4391   74.5178    2.5620 H       1  UNL1        0.2105
     39 H          20.8259   75.4165   -1.7466 H       1  UNL1        0.2106
     40 H          20.4405   71.9196    0.8848 H       1  UNL1        0.2106
     41 O          23.8133   69.4678    0.1036 O.co2   1  UNL1       -0.5466
     42 O          21.6171   69.4932    0.7145 O.co2   1  UNL1       -0.5466
     43 C          22.6153   70.0678    0.3046 C.2     1  UNL1        0.0799
@<TRIPOS>UNITY_ATOM_ATTR
41 1
charge -1
@<TRIPOS>BOND
     1     1     4    1
     2     1    24    1
     3     1     2    1
     4     1     3    2
     5    25    28    1
     6    25    24    1
     7    25    26    1
     8    25    27    2
     9     6    11    1
    10     6    12    1
    11    29    36    1
    12    29    37    1
    13     7     9    1
    14     7    13    1
    15     8    10    1
    16     8    14    1
    17     4     5    1
    18    28    36    1
    19    30    33    1
    20    30    38    1
    21    31    34    1
    22    31    39    1
    23    32    35    1
    24    32    40    1
    25    41    43   ar
    26    15    19    2
    27    42    43   ar
    28    16    22    2
    29    17    12    1
    30    17    19   ar
    31    17    20   ar
    32    18    19   ar
    33    18    22   ar
    34    18    23    1
    35     9    10    1
    36     9    11    1
    37    10    12    1
    38    11     5    1
    39    33    34    1
    40    33    35    1
    41    34    36    1
    42    35    37    1
    43    37    43    1
    44    20    21   ar
    45    21    22   ar
