@<TRIPOS>MOLECULE
UD1
 46 48 0 0 0
SMALL
GASTEIGER

@<TRIPOS>ATOM
      1 P          21.0665   70.9213   -3.7665 P.3     1  UNL1        0.2189
      2 O          21.4131   71.6379   -5.0135 O.2     1  UNL1       -0.5170
      3 O          20.6018   69.4210   -4.1210 O.3     1  UNL1       -0.4371
      4 O          19.8650   71.6922   -3.0215 O.3     1  UNL1       -0.3112
      5 C          18.9399   70.6946   -2.5864 C.3     1  UNL1        0.1811
      6 C          17.1522   70.5172   -5.7009 C.3     1  UNL1        0.2383
      7 C          17.0818   69.0785   -5.1304 C.3     1  UNL1        0.1895
      8 O          15.8776   68.4264   -5.5354 O.3     1  UNL1       -0.3779
      9 C          17.0850   69.3342   -3.6007 C.3     1  UNL1        0.1713
     10 C          17.6846   70.7466   -3.4586 C.3     1  UNL1        0.1764
     11 O          18.0250   71.2037   -4.7786 O.3     1  UNL1       -0.3308
     12 O          15.7531   69.2948   -3.0840 O.3     1  UNL1       -0.3794
     13 H          15.8958   67.5397   -5.1495 H       1  UNL1        0.2106
     14 H          15.4130   68.4066   -3.2561 H       1  UNL1        0.2105
     15 N          17.7241   70.5144   -7.0479 N.ar    1  UNL1       -0.2551
     16 C          16.9105   70.4671   -8.1170 C.ar    1  UNL1        0.3323
     17 N          17.4086   70.4674   -9.3677 N.ar    1  UNL1       -0.2743
     18 C          18.7414   70.5059   -9.5682 C.ar    1  UNL1        0.2626
     19 C          19.6096   70.5498   -8.4514 C.ar    1  UNL1        0.0795
     20 C          19.0830   70.5540   -7.2081 C.ar    1  UNL1        0.0869
     21 O          15.7062   70.4321   -7.9524 O.2     1  UNL1       -0.2464
     22 O          19.1930   70.5013  -10.6984 O.2     1  UNL1       -0.2670
     23 H          16.8069   70.4378  -10.1274 H       1  UNL1        0.1734
     24 O          22.3524   70.8718   -2.8007 O.3     1  UNL1       -0.2703
     25 P          22.9804   72.3532   -2.7865 P.3     1  UNL1        0.2208
     26 O          21.9546   73.3279   -3.2184 O.2     1  UNL1       -0.5170
     27 O          24.2355   72.4145   -3.7931 O.3     1  UNL1       -0.4371
     28 O          23.4710   72.7152   -1.2969 O.3     1  UNL1       -0.2865
     29 C          22.6131   72.0130   -0.3958 C.3     1  UNL1        0.2611
     30 C          21.9823   73.0081    0.5798 C.3     1  UNL1        0.1582
     31 C          23.0947   73.7328    1.3458 C.3     1  UNL1        0.1625
     32 C          24.0122   72.6852    1.9852 C.3     1  UNL1        0.1686
     33 C          24.4924   71.7162    0.9028 C.3     1  UNL1        0.1760
     34 O          22.5188   74.5545    2.3630 O.3     1  UNL1       -0.3801
     35 O          25.1372   73.3347    2.5805 O.3     1  UNL1       -0.3794
     36 O          23.3731   71.0455    0.3251 O.3     1  UNL1       -0.3263
     37 H          23.2521   74.9906    2.8183 H       1  UNL1        0.2105
     38 H          25.6875   72.6403    2.9695 H       1  UNL1        0.2105
     39 C          19.9754   74.3601    0.2991 C.2     1  UNL1        0.2231
     40 C          19.1527   75.3641   -0.4673 C.3     1  UNL1        0.0946
     41 N          21.1829   73.9838   -0.1641 N.am    1  UNL1       -0.2994
     42 O          19.5499   73.8902    1.3327 O.2     1  UNL1       -0.2751
     43 H          21.5235   74.3595   -0.9914 H       1  UNL1        0.1496
     44 C          25.4357   70.6848    1.5254 C.3     1  UNL1        0.1693
     45 O          24.8830   70.2155    2.7569 O.3     1  UNL1       -0.3794
     46 H          25.5068   69.5697    3.1154 H       1  UNL1        0.2105
@<TRIPOS>BOND
     1    29    30    1
     2    29    28    1
     3    29    36    1
     4    30    31    1
     5    30    41    1
     6    31    32    1
     7    31    34    1
     8    32    33    1
     9    32    35    1
    10    33    44    1
    11    33    36    1
    12    44    45    1
    13    39    40    1
    14    39    41   am
    15    39    42    2
    16    41    43    1
    17    28    25    1
    18    34    37    1
    19    35    38    1
    20    45    46    1
    21    15    16   ar
    22    15    20   ar
    23    15     6    1
    24    16    17   ar
    25    16    21    2
    26    17    18   ar
    27    17    23    1
    28    18    19   ar
    29    18    22    2
    30    19    20   ar
    31     6     7    1
    32     6    11    1
    33     7     8    1
    34     7     9    1
    35     8    13    1
    36     9    10    1
    37     9    12    1
    38    10    11    1
    39    10     5    1
    40    12    14    1
    41     5     4    1
    42     4     1    1
    43     1     2    2
    44     1     3    1
    45     1    24    1
    46    24    25    1
    47    25    26    2
    48    25    27    1
@<TRIPOS>MOLECULE
UD1
 46 48 0 0 0
SMALL
GASTEIGER

@<TRIPOS>ATOM
      1 P          20.7813   71.1716   -2.2450 P.3     1  UNL1        0.2189
      2 O          20.5122   72.6264   -2.2420 O.2     1  UNL1       -0.5170
      3 O          22.2651   70.9015   -2.8088 O.3     1  UNL1       -0.4371
      4 O          19.7069   70.4297   -3.1874 O.3     1  UNL1       -0.3112
      5 C          18.4787   70.3853   -2.4594 C.3     1  UNL1        0.1811
      6 C          16.9570   70.4663   -5.7159 C.3     1  UNL1        0.2383
      7 C          16.7841   69.0011   -5.2430 C.3     1  UNL1        0.1895
      8 O          15.5951   68.4258   -5.7856 O.3     1  UNL1       -0.3779
      9 C          16.6669   69.1669   -3.7055 C.3     1  UNL1        0.1713
     10 C          17.3050   70.5416   -3.4274 C.3     1  UNL1        0.1764
     11 O          17.7734   71.0599   -4.6841 O.3     1  UNL1       -0.3308
     12 O          15.2953   69.1543   -3.3040 O.3     1  UNL1       -0.3794
     13 H          15.5470   67.5181   -5.4550 H       1  UNL1        0.2106
     14 H          14.9378   68.2930   -3.5581 H       1  UNL1        0.2105
     15 N          17.6408   70.5176   -7.0086 N.ar    1  UNL1       -0.2551
     16 C          16.9217   70.4945   -8.1442 C.ar    1  UNL1        0.3323
     17 N          17.5239   70.5444   -9.3472 N.ar    1  UNL1       -0.2743
     18 C          18.8679   70.6096   -9.4320 C.ar    1  UNL1        0.2626
     19 C          19.6375   70.6286   -8.2445 C.ar    1  UNL1        0.0795
     20 C          19.0075   70.5829   -7.0511 C.ar    1  UNL1        0.0869
     21 O          15.7086   70.4359   -8.0841 O.2     1  UNL1       -0.2464
     22 O          19.4137   70.6500  -10.5192 O.2     1  UNL1       -0.2670
     23 H          16.9892   70.5316  -10.1560 H       1  UNL1        0.1734
     24 O          20.6639   70.6010   -0.7452 O.3     1  UNL1       -0.2703
     25 P          21.7151   71.4272    0.1501 P.3     1  UNL1        0.2208
     26 O          22.9953   70.6885    0.2151 O.2     1  UNL1       -0.5170
     27 O          21.1264   71.6110    1.6374 O.3     1  UNL1       -0.4371
     28 O          21.9634   72.8740   -0.5098 O.3     1  UNL1       -0.2865
     29 C          23.2171   73.3463   -0.0135 C.3     1  UNL1        0.2611
     30 C          23.0290   74.7392    0.5901 C.3     1  UNL1        0.1582
     31 C          22.4835   75.6830   -0.4876 C.3     1  UNL1        0.1625
     32 C          23.4085   75.6205   -1.7077 C.3     1  UNL1        0.1686
     33 C          23.5655   74.1611   -2.1398 C.3     1  UNL1        0.1760
     34 O          22.4446   77.0180    0.0201 O.3     1  UNL1       -0.3801
     35 O          22.8405   76.3787   -2.7773 O.3     1  UNL1       -0.3794
     36 O          24.1580   73.4065   -1.0834 O.3     1  UNL1       -0.3263
     37 H          22.0959   77.5763   -0.6884 H       1  UNL1        0.2105
     38 H          23.4530   76.3119   -3.5235 H       1  UNL1        0.2105
     39 C          22.5309   74.6717    2.9737 C.2     1  UNL1        0.2231
     40 C          21.5549   74.5963    4.1200 C.3     1  UNL1        0.0946
     41 N          22.0813   74.6666    1.7040 N.am    1  UNL1       -0.2994
     42 O          23.7214   74.7362    3.1943 O.2     1  UNL1       -0.2751
     43 H          21.1286   74.6147    1.5272 H       1  UNL1        0.1496
     44 C          24.4618   74.0908   -3.3779 C.3     1  UNL1        0.1693
     45 O          24.3205   72.8104   -3.9966 O.3     1  UNL1       -0.3794
     46 H          24.9005   72.8078   -4.7700 H       1  UNL1        0.2105
@<TRIPOS>BOND
     1    29    30    1
     2    29    28    1
     3    29    36    1
     4    30    31    1
     5    30    41    1
     6    31    32    1
     7    31    34    1
     8    32    33    1
     9    32    35    1
    10    33    44    1
    11    33    36    1
    12    44    45    1
    13    39    40    1
    14    39    41   am
    15    39    42    2
    16    41    43    1
    17    28    25    1
    18    34    37    1
    19    35    38    1
    20    45    46    1
    21    15    16   ar
    22    15    20   ar
    23    15     6    1
    24    16    17   ar
    25    16    21    2
    26    17    18   ar
    27    17    23    1
    28    18    19   ar
    29    18    22    2
    30    19    20   ar
    31     6     7    1
    32     6    11    1
    33     7     8    1
    34     7     9    1
    35     8    13    1
    36     9    10    1
    37     9    12    1
    38    10    11    1
    39    10     5    1
    40    12    14    1
    41     5     4    1
    42     4     1    1
    43     1     2    2
    44     1     3    1
    45     1    24    1
    46    24    25    1
    47    25    26    2
    48    25    27    1
@<TRIPOS>MOLECULE
UD1
 46 48 0 0 0
SMALL
GASTEIGER

@<TRIPOS>ATOM
      1 P          20.7928   71.6681   -2.2711 P.3     1  UNL1        0.2189
      2 O          21.5532   72.9370   -2.2529 O.2     1  UNL1       -0.5170
      3 O          21.7205   70.4949   -2.8674 O.3     1  UNL1       -0.4371
      4 O          19.4857   71.8396   -3.1957 O.3     1  UNL1       -0.3112
      5 C          18.3901   71.2771   -2.4721 C.3     1  UNL1        0.1811
      6 C          16.8908   70.6084   -5.6708 C.3     1  UNL1        0.2383
      7 C          17.0320   69.2146   -5.0094 C.3     1  UNL1        0.1895
      8 O          15.9929   68.3358   -5.4421 O.3     1  UNL1       -0.3779
      9 C          16.8800   69.5520   -3.5033 C.3     1  UNL1        0.1713
     10 C          17.2114   71.0546   -3.4210 C.3     1  UNL1        0.1764
     11 O          17.5611   71.4906   -4.7457 O.3     1  UNL1       -0.3308
     12 O          15.5416   69.3037   -3.0676 O.3     1  UNL1       -0.3794
     13 H          16.1379   67.4897   -4.9965 H       1  UNL1        0.2106
     14 H          15.3754   68.3608   -3.1994 H       1  UNL1        0.2105
     15 N          17.5502   70.6327   -6.9770 N.ar    1  UNL1       -0.2551
     16 C          16.8225   70.4592   -8.0940 C.ar    1  UNL1        0.3323
     17 N          17.4019   70.4807   -9.3090 N.ar    1  UNL1       -0.2743
     18 C          18.7320   70.6687   -9.4243 C.ar    1  UNL1        0.2626
     19 C          19.5109   70.8466   -8.2561 C.ar    1  UNL1        0.0795
     20 C          18.9033   70.8260   -7.0504 C.ar    1  UNL1        0.0869
     21 O          15.6217   70.2886   -8.0064 O.2     1  UNL1       -0.2464
     22 O          19.2576   70.6835  -10.5220 O.2     1  UNL1       -0.2670
     23 H          16.8610   70.3586  -10.1044 H       1  UNL1        0.1734
     24 O          20.3442   71.2898   -0.7729 O.3     1  UNL1       -0.2703
     25 P          21.6930   71.1303    0.0900 P.3     1  UNL1        0.2208
     26 O          22.8476   70.9799   -0.8229 O.2     1  UNL1       -0.5170
     27 O          21.5793   69.8276    1.0292 O.3     1  UNL1       -0.4371
     28 O          21.9016   72.4355    1.0083 O.3     1  UNL1       -0.2865
     29 C          21.8661   71.9962    2.3673 C.3     1  UNL1        0.2611
     30 C          21.7024   73.2084    3.2858 C.3     1  UNL1        0.1582
     31 C          22.8734   74.1711    3.0588 C.3     1  UNL1        0.1625
     32 C          24.1846   73.3966    3.2288 C.3     1  UNL1        0.1686
     33 C          24.1623   72.1717    2.3121 C.3     1  UNL1        0.1760
     34 O          22.8129   75.2322    4.0137 O.3     1  UNL1       -0.3801
     35 O          25.2853   74.2376    2.8783 O.3     1  UNL1       -0.3794
     36 O          23.0803   71.3158    2.6772 O.3     1  UNL1       -0.3263
     37 H          23.5656   75.8125    3.8346 H       1  UNL1        0.2105
     38 H          26.0886   73.7116    2.9986 H       1  UNL1        0.2105
     39 C          19.6748   74.3681    3.9776 C.2     1  UNL1        0.2231
     40 C          18.3772   75.0674    3.6622 C.3     1  UNL1        0.0946
     41 N          20.4420   73.8882    2.9799 N.am    1  UNL1       -0.2994
     42 O          20.0282   74.2367    5.1301 O.2     1  UNL1       -0.2751
     43 H          20.1593   73.9930    2.0576 H       1  UNL1        0.1496
     44 C          25.4814   71.4088    2.4502 C.3     1  UNL1        0.1693
     45 O          25.2114   70.0144    2.6084 O.3     1  UNL1       -0.3794
     46 H          26.0667   69.5715    2.6920 H       1  UNL1        0.2105
@<TRIPOS>BOND
     1    29    30    1
     2    29    28    1
     3    29    36    1
     4    30    31    1
     5    30    41    1
     6    31    32    1
     7    31    34    1
     8    32    33    1
     9    32    35    1
    10    33    44    1
    11    33    36    1
    12    44    45    1
    13    39    40    1
    14    39    41   am
    15    39    42    2
    16    41    43    1
    17    28    25    1
    18    34    37    1
    19    35    38    1
    20    45    46    1
    21    15    16   ar
    22    15    20   ar
    23    15     6    1
    24    16    17   ar
    25    16    21    2
    26    17    18   ar
    27    17    23    1
    28    18    19   ar
    29    18    22    2
    30    19    20   ar
    31     6     7    1
    32     6    11    1
    33     7     8    1
    34     7     9    1
    35     8    13    1
    36     9    10    1
    37     9    12    1
    38    10    11    1
    39    10     5    1
    40    12    14    1
    41     5     4    1
    42     4     1    1
    43     1     2    2
    44     1     3    1
    45     1    24    1
    46    24    25    1
    47    25    26    2
    48    25    27    1
@<TRIPOS>MOLECULE
UD1
 46 48 0 0 0
SMALL
GASTEIGER

@<TRIPOS>ATOM
      1 P          20.8123   71.2570   -0.9420 P.3     1  UNL1        0.2189
      2 O          20.9696   70.6083    0.3783 O.2     1  UNL1       -0.5170
      3 O          21.1949   72.8165   -0.8228 O.3     1  UNL1       -0.4371
      4 O          19.2842   71.1161   -1.4297 O.3     1  UNL1       -0.3112
      5 C          19.2959   70.2882   -2.5937 C.3     1  UNL1        0.1811
      6 C          17.3837   70.4786   -5.6325 C.3     1  UNL1        0.2383
      7 C          17.1604   69.0326   -5.1233 C.3     1  UNL1        0.1895
      8 O          15.8714   68.5500   -5.5040 O.3     1  UNL1       -0.3779
      9 C          17.2524   69.2110   -3.5855 C.3     1  UNL1        0.1713
     10 C          18.0242   70.5327   -3.4075 C.3     1  UNL1        0.1764
     11 O          18.3676   71.0098   -4.7196 O.3     1  UNL1       -0.3308
     12 O          15.9459   69.3061   -3.0138 O.3     1  UNL1       -0.3794
     13 H          15.7961   67.6496   -5.1587 H       1  UNL1        0.2106
     14 H          15.4941   68.4745   -3.2098 H       1  UNL1        0.2105
     15 N          17.8998   70.4733   -7.0018 N.ar    1  UNL1       -0.2551
     16 C          17.0430   70.4215   -8.0365 C.ar    1  UNL1        0.3323
     17 N          17.4894   70.4193   -9.3066 N.ar    1  UNL1       -0.2743
     18 C          18.8127   70.4599   -9.5618 C.ar    1  UNL1        0.2626
     19 C          19.7259   70.5085   -8.4817 C.ar    1  UNL1        0.0795
     20 C          19.2508   70.5151   -7.2178 C.ar    1  UNL1        0.0869
     21 O          15.8466   70.3846   -7.8225 O.2     1  UNL1       -0.2464
     22 O          19.2176   70.4531  -10.7096 O.2     1  UNL1       -0.2670
     23 H          16.8570   70.3865  -10.0409 H       1  UNL1        0.1734
     24 O          21.7837   70.5451   -2.0089 O.3     1  UNL1       -0.2703
     25 P          23.0423   71.5257   -2.2183 P.3     1  UNL1        0.2208
     26 O          24.1000   70.8165   -2.9714 O.2     1  UNL1       -0.5170
     27 O          23.6167   71.9766   -0.7834 O.3     1  UNL1       -0.4371
     28 O          22.5782   72.8280   -3.0423 O.3     1  UNL1       -0.2865
     29 C          23.7413   73.3430   -3.6929 C.3     1  UNL1        0.2611
     30 C          23.8787   74.8333   -3.3767 C.3     1  UNL1        0.1582
     31 C          22.6209   75.5658   -3.8572 C.3     1  UNL1        0.1625
     32 C          22.3934   75.2311   -5.3352 C.3     1  UNL1        0.1686
     33 C          22.3650   73.7105   -5.5032 C.3     1  UNL1        0.1760
     34 O          22.7994   76.9750   -3.7039 O.3     1  UNL1       -0.3801
     35 O          21.1477   75.7841   -5.7642 O.3     1  UNL1       -0.3794
     36 O          23.6176   73.1575   -5.1014 O.3     1  UNL1       -0.3263
     37 H          21.9866   77.3953   -4.0171 H       1  UNL1        0.2105
     38 H          21.0442   75.5497   -6.6974 H       1  UNL1        0.2105
     39 C          24.8966   75.9301   -1.4544 C.2     1  UNL1        0.2231
     40 C          25.0529   76.1169    0.0332 C.3     1  UNL1        0.0946
     41 N          24.0306   75.0155   -1.9316 N.am    1  UNL1       -0.2994
     42 O          25.5511   76.6028   -2.2220 O.2     1  UNL1       -0.2751
     43 H          23.5068   74.4769   -1.3176 H       1  UNL1        0.1496
     44 C          22.1058   73.3656   -6.9712 C.3     1  UNL1        0.1693
     45 O          23.1969   72.5956   -7.4798 O.3     1  UNL1       -0.3794
     46 H          22.9944   72.4003   -8.4048 H       1  UNL1        0.2105
@<TRIPOS>BOND
     1    29    30    1
     2    29    28    1
     3    29    36    1
     4    30    31    1
     5    30    41    1
     6    31    32    1
     7    31    34    1
     8    32    33    1
     9    32    35    1
    10    33    44    1
    11    33    36    1
    12    44    45    1
    13    39    40    1
    14    39    41   am
    15    39    42    2
    16    41    43    1
    17    28    25    1
    18    34    37    1
    19    35    38    1
    20    45    46    1
    21    15    16   ar
    22    15    20   ar
    23    15     6    1
    24    16    17   ar
    25    16    21    2
    26    17    18   ar
    27    17    23    1
    28    18    19   ar
    29    18    22    2
    30    19    20   ar
    31     6     7    1
    32     6    11    1
    33     7     8    1
    34     7     9    1
    35     8    13    1
    36     9    10    1
    37     9    12    1
    38    10    11    1
    39    10     5    1
    40    12    14    1
    41     5     4    1
    42     4     1    1
    43     1     2    2
    44     1     3    1
    45     1    24    1
    46    24    25    1
    47    25    26    2
    48    25    27    1
@<TRIPOS>MOLECULE
UD1
 46 48 0 0 0
SMALL
GASTEIGER

@<TRIPOS>ATOM
      1 P          23.2579   72.0790   -2.7279 P.3     1  UNL1        0.2189
      2 O          23.3430   70.6250   -2.4680 O.2     1  UNL1       -0.5170
      3 O          24.1920   72.4552   -3.9843 O.3     1  UNL1       -0.4371
      4 O          23.7584   72.8862   -1.4276 O.3     1  UNL1       -0.3112
      5 C          23.6980   71.9771   -0.3275 C.3     1  UNL1        0.1811
      6 C          25.1061   73.4047    2.6569 C.3     1  UNL1        0.2383
      7 C          25.1848   74.5422    1.6080 C.3     1  UNL1        0.1895
      8 O          25.0717   75.8216    2.2321 O.3     1  UNL1       -0.3779
      9 C          23.9493   74.2498    0.7173 C.3     1  UNL1        0.1713
     10 C          23.6396   72.7639    0.9828 C.3     1  UNL1        0.1764
     11 O          24.6385   72.2728    1.8929 O.3     1  UNL1       -0.3308
     12 O          22.8475   75.0740    1.1040 O.3     1  UNL1       -0.3794
     13 H          25.1285   76.4826    1.5283 H       1  UNL1        0.2106
     14 H          23.1242   75.9905    0.9711 H       1  UNL1        0.2105
     15 N          26.4258   73.1324    3.2278 N.ar    1  UNL1       -0.2551
     16 C          26.8846   73.8923    4.2375 C.ar    1  UNL1        0.3323
     17 N          28.0929   73.6622    4.7844 N.ar    1  UNL1       -0.2743
     18 C          28.8710   72.6645    4.3183 C.ar    1  UNL1        0.2626
     19 C          28.4027   71.8607    3.2517 C.ar    1  UNL1        0.0795
     20 C          27.1846   72.1100    2.7252 C.ar    1  UNL1        0.0869
     21 O          26.1945   74.7958    4.6688 O.2     1  UNL1       -0.2464
     22 O          29.9656   72.4586    4.8089 O.2     1  UNL1       -0.2670
     23 H          28.4060   74.2171    5.5153 H       1  UNL1        0.1734
     24 O          21.7334   72.4778   -3.0530 O.3     1  UNL1       -0.2703
     25 P          20.8508   71.1482   -2.8461 P.3     1  UNL1        0.2208
     26 O          20.8262   70.7911   -1.4106 O.2     1  UNL1       -0.5170
     27 O          21.4971   69.9379   -3.6885 O.3     1  UNL1       -0.4371
     28 O          19.3485   71.4147   -3.3586 O.3     1  UNL1       -0.2865
     29 C          19.0524   70.4001   -4.3198 C.3     1  UNL1        0.2611
     30 C          18.5520   71.0555   -5.6082 C.3     1  UNL1        0.1582
     31 C          17.3021   71.8859   -5.2954 C.3     1  UNL1        0.1625
     32 C          16.2843   70.9898   -4.5818 C.3     1  UNL1        0.1686
     33 C          16.9551   70.3416   -3.3689 C.3     1  UNL1        0.1760
     34 O          16.7393   72.3810   -6.5118 O.3     1  UNL1       -0.3801
     35 O          15.1731   71.7778   -4.1508 O.3     1  UNL1       -0.3794
     36 O          18.0488   69.5317   -3.7984 O.3     1  UNL1       -0.3263
     37 H          15.9578   72.8962   -6.2687 H       1  UNL1        0.2105
     38 H          14.5587   71.1760   -3.7071 H       1  UNL1        0.2105
     39 C          20.4903   71.4382   -7.0333 C.2     1  UNL1        0.2231
     40 C          21.5651   72.3350   -7.5927 C.3     1  UNL1        0.0946
     41 N          19.5960   71.9264   -6.1523 N.am    1  UNL1       -0.2994
     42 O          20.4308   70.2766   -7.3759 O.2     1  UNL1       -0.2751
     43 H          19.6435   72.8559   -5.8778 H       1  UNL1        0.1496
     44 C          15.9376   69.4696   -2.6303 C.3     1  UNL1        0.1693
     45 O          16.6233   68.5868   -1.7401 O.3     1  UNL1       -0.3794
     46 H          15.9477   68.0566   -1.2962 H       1  UNL1        0.2105
@<TRIPOS>BOND
     1    29    30    1
     2    29    28    1
     3    29    36    1
     4    30    31    1
     5    30    41    1
     6    31    32    1
     7    31    34    1
     8    32    33    1
     9    32    35    1
    10    33    44    1
    11    33    36    1
    12    44    45    1
    13    39    40    1
    14    39    41   am
    15    39    42    2
    16    41    43    1
    17    28    25    1
    18    34    37    1
    19    35    38    1
    20    45    46    1
    21    15    16   ar
    22    15    20   ar
    23    15     6    1
    24    16    17   ar
    25    16    21    2
    26    17    18   ar
    27    17    23    1
    28    18    19   ar
    29    18    22    2
    30    19    20   ar
    31     6     7    1
    32     6    11    1
    33     7     8    1
    34     7     9    1
    35     8    13    1
    36     9    10    1
    37     9    12    1
    38    10    11    1
    39    10     5    1
    40    12    14    1
    41     5     4    1
    42     4     1    1
    43     1     2    2
    44     1     3    1
    45     1    24    1
    46    24    25    1
    47    25    26    2
    48    25    27    1
@<TRIPOS>MOLECULE
UD1
 46 48 0 0 0
SMALL
GASTEIGER

@<TRIPOS>ATOM
      1 P          15.8131   69.8628   -2.2216 P.3     1  UNL1        0.2189
      2 O          14.6272   70.7430   -2.1344 O.2     1  UNL1       -0.5170
      3 O          15.9813   69.3372   -3.7342 O.3     1  UNL1       -0.4371
      4 O          15.6205   68.6045   -1.2356 O.3     1  UNL1       -0.3112
      5 C          14.7978   69.0474   -0.1551 C.3     1  UNL1        0.1811
      6 C          12.4347   67.0321    1.6564 C.3     1  UNL1        0.2383
      7 C          11.7711   68.4296    1.5750 C.3     1  UNL1        0.1895
      8 O          10.3477   68.3185    1.5431 O.3     1  UNL1       -0.3779
      9 C          12.3142   68.9700    0.2266 C.3     1  UNL1        0.1713
     10 C          13.5803   68.1302   -0.0306 C.3     1  UNL1        0.1764
     11 O          13.7458   67.2476    1.0924 O.3     1  UNL1       -0.3308
     12 O          11.3550   68.7726   -0.8144 O.3     1  UNL1       -0.3794
     13 H           9.9975   69.2187    1.4932 H       1  UNL1        0.2106
     14 H          10.5667   69.2738   -0.5666 H       1  UNL1        0.2105
     15 N          12.5377   66.5862    3.0463 N.ar    1  UNL1       -0.2551
     16 C          13.4013   67.1934    3.8786 C.ar    1  UNL1        0.3323
     17 N          13.5143   66.8067    5.1631 N.ar    1  UNL1       -0.2743
     18 C          12.7639   65.7909    5.6354 C.ar    1  UNL1        0.2626
     19 C          11.8550   65.1389    4.7685 C.ar    1  UNL1        0.0795
     20 C          11.7580   65.5505    3.4861 C.ar    1  UNL1        0.0869
     21 O          14.0849   68.1111    3.4675 O.2     1  UNL1       -0.2464
     22 O          12.8686   65.4373    6.7953 O.2     1  UNL1       -0.2670
     23 H          14.1390   67.2591    5.7507 H       1  UNL1        0.1734
     24 O          17.1259   70.6867   -1.7896 O.3     1  UNL1       -0.2703
     25 P          18.2992   70.2568   -2.8036 P.3     1  UNL1        0.2208
     26 O          18.1361   68.8330   -3.1712 O.2     1  UNL1       -0.5170
     27 O          19.7281   70.4662   -2.0918 O.3     1  UNL1       -0.4371
     28 O          18.2236   71.1654   -4.1299 O.3     1  UNL1       -0.2865
     29 C          18.9936   70.4998   -5.1326 C.3     1  UNL1        0.2611
     30 C          19.9711   71.4942   -5.7616 C.3     1  UNL1        0.1582
     31 C          19.1803   72.6578   -6.3702 C.3     1  UNL1        0.1625
     32 C          18.1258   72.0876   -7.3247 C.3     1  UNL1        0.1686
     33 C          17.2854   71.0505   -6.5767 C.3     1  UNL1        0.1760
     34 O          20.0680   73.5158   -7.0894 O.3     1  UNL1       -0.3801
     35 O          17.2822   73.1426   -7.7902 O.3     1  UNL1       -0.3794
     36 O          18.1207   69.9815   -6.1340 O.3     1  UNL1       -0.3263
     37 H          19.5300   74.2319   -7.4541 H       1  UNL1        0.2105
     38 H          16.6341   72.7405   -8.3859 H       1  UNL1        0.2105
     39 C          22.1715   72.2447   -5.0341 C.2     1  UNL1        0.2231
     40 C          23.1077   72.7689   -3.9753 C.3     1  UNL1        0.0946
     41 N          20.8808   72.0039   -4.7336 N.am    1  UNL1       -0.2994
     42 O          22.5804   72.0389   -6.1569 O.2     1  UNL1       -0.2751
     43 H          20.5534   72.1683   -3.8350 H       1  UNL1        0.1496
     44 C          16.2079   70.4982   -7.5122 C.3     1  UNL1        0.1693
     45 O          15.5103   69.4348   -6.8608 O.3     1  UNL1       -0.3794
     46 H          14.8425   69.1158   -7.4828 H       1  UNL1        0.2105
@<TRIPOS>BOND
     1    29    30    1
     2    29    28    1
     3    29    36    1
     4    30    31    1
     5    30    41    1
     6    31    32    1
     7    31    34    1
     8    32    33    1
     9    32    35    1
    10    33    44    1
    11    33    36    1
    12    44    45    1
    13    39    40    1
    14    39    41   am
    15    39    42    2
    16    41    43    1
    17    28    25    1
    18    34    37    1
    19    35    38    1
    20    45    46    1
    21    15    16   ar
    22    15    20   ar
    23    15     6    1
    24    16    17   ar
    25    16    21    2
    26    17    18   ar
    27    17    23    1
    28    18    19   ar
    29    18    22    2
    30    19    20   ar
    31     6     7    1
    32     6    11    1
    33     7     8    1
    34     7     9    1
    35     8    13    1
    36     9    10    1
    37     9    12    1
    38    10    11    1
    39    10     5    1
    40    12    14    1
    41     5     4    1
    42     4     1    1
    43     1     2    2
    44     1     3    1
    45     1    24    1
    46    24    25    1
    47    25    26    2
    48    25    27    1
@<TRIPOS>MOLECULE
UD1
 46 48 0 0 0
SMALL
GASTEIGER

@<TRIPOS>ATOM
      1 P          20.6895   71.3319   -0.9412 P.3     1  UNL1        0.2189
      2 O          20.7935   72.7999   -0.7902 O.2     1  UNL1       -0.5170
      3 O          21.7286   70.8330   -2.0655 O.3     1  UNL1       -0.4371
      4 O          19.1915   70.9436   -1.3863 O.3     1  UNL1       -0.3112
      5 C          19.2945   70.2663   -2.6397 C.3     1  UNL1        0.1811
      6 C          17.3885   70.4495   -5.6828 C.3     1  UNL1        0.2383
      7 C          17.1680   69.0032   -5.1732 C.3     1  UNL1        0.1895
      8 O          15.8812   68.5168   -5.5564 O.3     1  UNL1       -0.3779
      9 C          17.2562   69.1829   -3.6353 C.3     1  UNL1        0.1713
     10 C          18.0240   70.5069   -3.4565 C.3     1  UNL1        0.1764
     11 O          18.3690   70.9840   -4.7682 O.3     1  UNL1       -0.3308
     12 O          15.9482   69.2749   -3.0664 O.3     1  UNL1       -0.3794
     13 H          15.8076   67.6165   -5.2106 H       1  UNL1        0.2106
     14 H          15.4991   68.4419   -3.2629 H       1  UNL1        0.2105
     15 N          17.9075   70.4446   -7.0510 N.ar    1  UNL1       -0.2551
     16 C          17.0522   70.4314   -8.0881 C.ar    1  UNL1        0.3323
     17 N          17.5014   70.4306   -9.3571 N.ar    1  UNL1       -0.2743
     18 C          18.8260   70.4337   -9.6090 C.ar    1  UNL1        0.2626
     19 C          19.7376   70.4417   -8.5266 C.ar    1  UNL1        0.0795
     20 C          19.2598   70.4477   -7.2636 C.ar    1  UNL1        0.0869
     21 O          15.8547   70.4285   -7.8771 O.2     1  UNL1       -0.2464
     22 O          19.2333   70.4282  -10.7560 O.2     1  UNL1       -0.2670
     23 H          16.8702   70.4258  -10.0931 H       1  UNL1        0.1734
     24 O          21.0332   70.6223    0.4614 O.3     1  UNL1       -0.2703
     25 P          22.4034   71.2791    0.9911 P.3     1  UNL1        0.2208
     26 O          22.8602   72.3084    0.0315 O.2     1  UNL1       -0.5170
     27 O          23.5294   70.1364    1.1275 O.3     1  UNL1       -0.4371
     28 O          22.1537   71.9587    2.4285 O.3     1  UNL1       -0.2865
     29 C          22.4044   73.3569    2.2751 C.3     1  UNL1        0.2611
     30 C          23.3759   73.8181    3.3629 C.3     1  UNL1        0.1582
     31 C          22.7645   73.5257    4.7378 C.3     1  UNL1        0.1625
     32 C          21.3699   74.1577    4.7984 C.3     1  UNL1        0.1686
     33 C          20.5486   73.6683    3.6038 C.3     1  UNL1        0.1760
     34 O          23.5924   74.0855    5.7589 O.3     1  UNL1       -0.3801
     35 O          20.7237   73.7740    6.0137 O.3     1  UNL1       -0.3794
     36 O          21.1769   74.0737    2.3883 O.3     1  UNL1       -0.3263
     37 H          23.1716   73.8782    6.6046 H       1  UNL1        0.2105
     38 H          19.8509   74.1919    6.0105 H       1  UNL1        0.2105
     39 C          25.8108   73.7481    3.3887 C.2     1  UNL1        0.2231
     40 C          27.1148   73.0053    3.2472 C.3     1  UNL1        0.0946
     41 N          24.6430   73.0969    3.2260 N.am    1  UNL1       -0.2994
     42 O          25.8127   74.9324    3.6485 O.2     1  UNL1       -0.2751
     43 H          24.6411   72.1492    3.0179 H       1  UNL1        0.1496
     44 C          19.1428   74.2684    3.6727 C.3     1  UNL1        0.1693
     45 O          18.7632   74.7435    2.3796 O.3     1  UNL1       -0.3794
     46 H          17.8741   75.1130    2.4670 H       1  UNL1        0.2105
@<TRIPOS>BOND
     1    29    30    1
     2    29    28    1
     3    29    36    1
     4    30    31    1
     5    30    41    1
     6    31    32    1
     7    31    34    1
     8    32    33    1
     9    32    35    1
    10    33    44    1
    11    33    36    1
    12    44    45    1
    13    39    40    1
    14    39    41   am
    15    39    42    2
    16    41    43    1
    17    28    25    1
    18    34    37    1
    19    35    38    1
    20    45    46    1
    21    15    16   ar
    22    15    20   ar
    23    15     6    1
    24    16    17   ar
    25    16    21    2
    26    17    18   ar
    27    17    23    1
    28    18    19   ar
    29    18    22    2
    30    19    20   ar
    31     6     7    1
    32     6    11    1
    33     7     8    1
    34     7     9    1
    35     8    13    1
    36     9    10    1
    37     9    12    1
    38    10    11    1
    39    10     5    1
    40    12    14    1
    41     5     4    1
    42     4     1    1
    43     1     2    2
    44     1     3    1
    45     1    24    1
    46    24    25    1
    47    25    26    2
    48    25    27    1
@<TRIPOS>MOLECULE
UD1
 46 48 0 0 0
SMALL
GASTEIGER

@<TRIPOS>ATOM
      1 P          21.1032   71.1250   -0.4045 P.3     1  UNL1        0.2189
      2 O          22.3455   71.2691   -1.1948 O.2     1  UNL1       -0.5170
      3 O          21.3505   70.0847    0.7993 O.3     1  UNL1       -0.4371
      4 O          19.9246   70.5753   -1.3539 O.3     1  UNL1       -0.3112
      5 C          19.6968   71.5728   -2.3506 C.3     1  UNL1        0.1811
      6 C          17.6211   70.7516   -5.1693 C.3     1  UNL1        0.2383
      7 C          17.8988   69.3911   -4.4822 C.3     1  UNL1        0.1895
      8 O          16.8044   68.4925   -4.6668 O.3     1  UNL1       -0.3779
      9 C          18.0336   69.8001   -2.9924 C.3     1  UNL1        0.1713
     10 C          18.3608   71.3050   -3.0455 C.3     1  UNL1        0.1764
     11 O          18.4474   71.6772   -4.4316 O.3     1  UNL1       -0.3308
     12 O          16.8053   69.5729   -2.2979 O.3     1  UNL1       -0.3794
     13 H          17.0395   67.6686   -4.2179 H       1  UNL1        0.2106
     14 H          16.6257   68.6247   -2.3512 H       1  UNL1        0.2105
     15 N          18.0191   70.7134   -6.5770 N.ar    1  UNL1       -0.2551
     16 C          17.1056   70.4240   -7.5200 C.ar    1  UNL1        0.3323
     17 N          17.4425   70.3857   -8.8228 N.ar    1  UNL1       -0.2743
     18 C          18.7127   70.6297   -9.2036 C.ar    1  UNL1        0.2626
     19 C          19.6857   70.9298   -8.2207 C.ar    1  UNL1        0.0795
     20 C          19.3194   70.9668   -6.9216 C.ar    1  UNL1        0.0869
     21 O          15.9559   70.2016   -7.1922 O.2     1  UNL1       -0.2464
     22 O          19.0195   70.5907  -10.3808 O.2     1  UNL1       -0.2670
     23 H          16.7697   70.1799   -9.4899 H       1  UNL1        0.1734
     24 O          20.6823   72.5558    0.1993 O.3     1  UNL1       -0.2703
     25 P          21.3055   72.6368    1.6807 P.3     1  UNL1        0.2208
     26 O          21.9510   71.3482    2.0152 O.2     1  UNL1       -0.5170
     27 O          20.1327   72.9400    2.7413 O.3     1  UNL1       -0.4371
     28 O          22.3992   73.8161    1.7404 O.3     1  UNL1       -0.2865
     29 C          23.6826   73.1968    1.6388 C.3     1  UNL1        0.2611
     30 C          24.6559   73.8923    2.5923 C.3     1  UNL1        0.1582
     31 C          24.7415   75.3781    2.2253 C.3     1  UNL1        0.1625
     32 C          25.0896   75.4963    0.7377 C.3     1  UNL1        0.1686
     33 C          24.0815   74.6821   -0.0762 C.3     1  UNL1        0.1760
     34 O          25.7567   76.0073    3.0095 O.3     1  UNL1       -0.3801
     35 O          25.0304   76.8675    0.3405 O.3     1  UNL1       -0.3794
     36 O          24.1574   73.3073    0.2987 O.3     1  UNL1       -0.3263
     37 H          25.7758   76.9379    2.7470 H       1  UNL1        0.2105
     38 H          25.2549   76.8961   -0.6004 H       1  UNL1        0.2105
     39 C          23.3961   74.7088    4.5107 C.2     1  UNL1        0.2231
     40 C          22.9030   74.5661    5.9280 C.3     1  UNL1        0.0946
     41 N          24.1762   73.7538    3.9689 N.am    1  UNL1       -0.2994
     42 O          23.0911   75.6841    3.8580 O.2     1  UNL1       -0.2751
     43 H          24.4206   72.9733    4.4911 H       1  UNL1        0.1496
     44 C          24.4010   74.8199   -1.5662 C.3     1  UNL1        0.1693
     45 O          23.7967   73.7428   -2.2849 O.3     1  UNL1       -0.3794
     46 H          24.0221   73.8669   -3.2168 H       1  UNL1        0.2105
@<TRIPOS>BOND
     1    29    30    1
     2    29    28    1
     3    29    36    1
     4    30    31    1
     5    30    41    1
     6    31    32    1
     7    31    34    1
     8    32    33    1
     9    32    35    1
    10    33    44    1
    11    33    36    1
    12    44    45    1
    13    39    40    1
    14    39    41   am
    15    39    42    2
    16    41    43    1
    17    28    25    1
    18    34    37    1
    19    35    38    1
    20    45    46    1
    21    15    16   ar
    22    15    20   ar
    23    15     6    1
    24    16    17   ar
    25    16    21    2
    26    17    18   ar
    27    17    23    1
    28    18    19   ar
    29    18    22    2
    30    19    20   ar
    31     6     7    1
    32     6    11    1
    33     7     8    1
    34     7     9    1
    35     8    13    1
    36     9    10    1
    37     9    12    1
    38    10    11    1
    39    10     5    1
    40    12    14    1
    41     5     4    1
    42     4     1    1
    43     1     2    2
    44     1     3    1
    45     1    24    1
    46    24    25    1
    47    25    26    2
    48    25    27    1
@<TRIPOS>MOLECULE
UD1
 46 48 0 0 0
SMALL
GASTEIGER

@<TRIPOS>ATOM
      1 P          21.0879   71.0718   -2.3474 P.3     1  UNL1        0.2189
      2 O          20.9329   72.5370   -2.4818 O.2     1  UNL1       -0.5170
      3 O          22.4869   70.6177   -3.0026 O.3     1  UNL1       -0.4371
      4 O          19.8757   70.3326   -3.1069 O.3     1  UNL1       -0.3112
      5 C          18.6981   70.5673   -2.3332 C.3     1  UNL1        0.1811
      6 C          17.0601   70.5053   -5.5333 C.3     1  UNL1        0.2383
      7 C          16.9609   69.0476   -5.0182 C.3     1  UNL1        0.1895
      8 O          15.7766   68.4137   -5.5027 O.3     1  UNL1       -0.3779
      9 C          16.8918   69.2490   -3.4820 C.3     1  UNL1        0.1713
     10 C          17.4857   70.6537   -3.2616 C.3     1  UNL1        0.1764
     11 O          17.8889   71.1563   -4.5469 O.3     1  UNL1       -0.3308
     12 O          15.5368   69.1952   -3.0308 O.3     1  UNL1       -0.3794
     13 H          15.7753   67.5139   -5.1481 H       1  UNL1        0.2106
     14 H          15.2041   68.3147   -3.2502 H       1  UNL1        0.2105
     15 N          17.6953   70.5486   -6.8509 N.ar    1  UNL1       -0.2551
     16 C          16.9374   70.4734   -7.9587 C.ar    1  UNL1        0.3323
     17 N          17.4943   70.5147   -9.1836 N.ar    1  UNL1       -0.2743
     18 C          18.8314   70.6235   -9.3189 C.ar    1  UNL1        0.2626
     19 C          19.6416   70.6975   -8.1609 C.ar    1  UNL1        0.0795
     20 C          19.0565   70.6593   -6.9445 C.ar    1  UNL1        0.0869
     21 O          15.7300   70.3751   -7.8531 O.2     1  UNL1       -0.2464
     22 O          19.3363   70.6561  -10.4258 O.2     1  UNL1       -0.2670
     23 H          16.9320   70.4641   -9.9719 H       1  UNL1        0.1734
     24 O          21.0688   70.6708   -0.7893 O.3     1  UNL1       -0.2703
     25 P          22.3614   71.3542   -0.1175 P.3     1  UNL1        0.2208
     26 O          23.3542   71.6702   -1.1679 O.2     1  UNL1       -0.5170
     27 O          23.0135   70.3386    0.9482 O.3     1  UNL1       -0.4371
     28 O          21.9245   72.7094    0.6329 O.3     1  UNL1       -0.2865
     29 C          20.7656   72.3987    1.4085 C.3     1  UNL1        0.2611
     30 C          19.8916   73.6478    1.5333 C.3     1  UNL1        0.1582
     31 C          20.7046   74.7640    2.1986 C.3     1  UNL1        0.1625
     32 C          21.2767   74.2341    3.5177 C.3     1  UNL1        0.1686
     33 C          22.0490   72.9421    3.2427 C.3     1  UNL1        0.1760
     34 O          19.8572   75.8851    2.4565 O.3     1  UNL1       -0.3801
     35 O          22.1569   75.2077    4.0823 O.3     1  UNL1       -0.3794
     36 O          21.1666   71.9583    2.7041 O.3     1  UNL1       -0.3263
     37 H          20.4081   76.5617    2.8737 H       1  UNL1        0.2105
     38 H          22.4943   74.8340    4.9087 H       1  UNL1        0.2105
     39 C          20.1378   75.0516   -0.4423 C.2     1  UNL1        0.2231
     40 C          19.6953   75.4970   -1.8127 C.3     1  UNL1        0.0946
     41 N          19.4624   74.0805    0.2018 N.am    1  UNL1       -0.2994
     42 O          21.1019   75.5682    0.0811 O.2     1  UNL1       -0.2751
     43 H          18.6907   73.6671   -0.2168 H       1  UNL1        0.1496
     44 C          22.6520   72.4219    4.5491 C.3     1  UNL1        0.1693
     45 O          21.9211   72.9530    5.6563 O.3     1  UNL1       -0.3794
     46 H          22.3325   72.6018    6.4575 H       1  UNL1        0.2105
@<TRIPOS>BOND
     1    29    30    1
     2    29    28    1
     3    29    36    1
     4    30    31    1
     5    30    41    1
     6    31    32    1
     7    31    34    1
     8    32    33    1
     9    32    35    1
    10    33    44    1
    11    33    36    1
    12    44    45    1
    13    39    40    1
    14    39    41   am
    15    39    42    2
    16    41    43    1
    17    28    25    1
    18    34    37    1
    19    35    38    1
    20    45    46    1
    21    15    16   ar
    22    15    20   ar
    23    15     6    1
    24    16    17   ar
    25    16    21    2
    26    17    18   ar
    27    17    23    1
    28    18    19   ar
    29    18    22    2
    30    19    20   ar
    31     6     7    1
    32     6    11    1
    33     7     8    1
    34     7     9    1
    35     8    13    1
    36     9    10    1
    37     9    12    1
    38    10    11    1
    39    10     5    1
    40    12    14    1
    41     5     4    1
    42     4     1    1
    43     1     2    2
    44     1     3    1
    45     1    24    1
    46    24    25    1
    47    25    26    2
    48    25    27    1
@<TRIPOS>MOLECULE
UD1
 46 48 0 0 0
SMALL
GASTEIGER

@<TRIPOS>ATOM
      1 P          23.0244   72.4856   -3.3189 P.3     1  UNL1        0.2189
      2 O          22.7555   73.7956   -2.6861 O.2     1  UNL1       -0.5170
      3 O          24.5079   72.4863   -3.9447 O.3     1  UNL1       -0.4371
      4 O          21.9495   72.2249   -4.4891 O.3     1  UNL1       -0.3112
      5 C          22.5099   72.7548   -5.6914 C.3     1  UNL1        0.1811
      6 C          19.3049   71.9571   -7.1124 C.3     1  UNL1        0.2383
      7 C          19.0828   73.3083   -6.3877 C.3     1  UNL1        0.1895
      8 O          18.0809   74.0833   -7.0470 O.3     1  UNL1       -0.3779
      9 C          20.4750   73.9793   -6.5160 C.3     1  UNL1        0.1713
     10 C          21.4350   72.8028   -6.7784 C.3     1  UNL1        0.1764
     11 O          20.6540   71.5960   -6.7473 O.3     1  UNL1       -0.3308
     12 O          20.4886   74.8982   -7.6106 O.3     1  UNL1       -0.3794
     13 H          17.9908   74.9072   -6.5485 H       1  UNL1        0.2106
     14 H          19.8273   75.5753   -7.4150 H       1  UNL1        0.2105
     15 N          18.3548   70.9506   -6.6374 N.ar    1  UNL1       -0.2551
     16 C          17.3989   70.4937   -7.4650 C.ar    1  UNL1        0.3323
     17 N          16.5140   69.5651   -7.0563 N.ar    1  UNL1       -0.2743
     18 C          16.5677   69.0825   -5.7985 C.ar    1  UNL1        0.2626
     19 C          17.5652   69.5592   -4.9149 C.ar    1  UNL1        0.0795
     20 C          18.4434   70.4868   -5.3525 C.ar    1  UNL1        0.0869
     21 O          17.3377   70.9192   -8.6025 O.2     1  UNL1       -0.2464
     22 O          15.7652   68.2465   -5.4264 O.2     1  UNL1       -0.2670
     23 H          15.8341   69.2433   -7.6682 H       1  UNL1        0.1734
     24 O          22.9074   71.3218   -2.2141 O.3     1  UNL1       -0.2703
     25 P          21.6797   71.7162   -1.2515 P.3     1  UNL1        0.2208
     26 O          20.9266   70.4958   -0.8876 O.2     1  UNL1       -0.5170
     27 O          20.7026   72.7401   -2.0190 O.3     1  UNL1       -0.4371
     28 O          22.2457   72.4153    0.0832 O.3     1  UNL1       -0.2865
     29 C          21.8610   71.5855    1.1808 C.3     1  UNL1        0.2611
     30 C          21.2508   72.4549    2.2816 C.3     1  UNL1        0.1582
     31 C          22.2828   73.4973    2.7269 C.3     1  UNL1        0.1625
     32 C          23.5772   72.7725    3.1107 C.3     1  UNL1        0.1686
     33 C          24.0136   71.8813    1.9459 C.3     1  UNL1        0.1760
     34 O          21.7806   74.2169    3.8544 O.3     1  UNL1       -0.3801
     35 O          24.5983   73.7327    3.3883 O.3     1  UNL1       -0.3794
     36 O          23.0078   70.9035    1.6839 O.3     1  UNL1       -0.3263
     37 H          22.4596   74.8602    4.1003 H       1  UNL1        0.2105
     38 H          25.3938   73.2348    3.6242 H       1  UNL1        0.2105
     39 C          20.1636   74.3627    1.2267 C.2     1  UNL1        0.2231
     40 C          18.9369   75.0605    0.6971 C.3     1  UNL1        0.0946
     41 N          20.0595   73.1330    1.7665 N.am    1  UNL1       -0.2994
     42 O          21.2446   74.9086    1.1676 O.2     1  UNL1       -0.2751
     43 H          19.1945   72.6960    1.8141 H       1  UNL1        0.1496
     44 C          25.3234   71.1776    2.3068 C.3     1  UNL1        0.1693
     45 O          25.0467   69.8382    2.7208 O.3     1  UNL1       -0.3794
     46 H          25.8962   69.4315    2.9388 H       1  UNL1        0.2105
@<TRIPOS>BOND
     1    29    30    1
     2    29    28    1
     3    29    36    1
     4    30    31    1
     5    30    41    1
     6    31    32    1
     7    31    34    1
     8    32    33    1
     9    32    35    1
    10    33    44    1
    11    33    36    1
    12    44    45    1
    13    39    40    1
    14    39    41   am
    15    39    42    2
    16    41    43    1
    17    28    25    1
    18    34    37    1
    19    35    38    1
    20    45    46    1
    21    15    16   ar
    22    15    20   ar
    23    15     6    1
    24    16    17   ar
    25    16    21    2
    26    17    18   ar
    27    17    23    1
    28    18    19   ar
    29    18    22    2
    30    19    20   ar
    31     6     7    1
    32     6    11    1
    33     7     8    1
    34     7     9    1
    35     8    13    1
    36     9    10    1
    37     9    12    1
    38    10    11    1
    39    10     5    1
    40    12    14    1
    41     5     4    1
    42     4     1    1
    43     1     2    2
    44     1     3    1
    45     1    24    1
    46    24    25    1
    47    25    26    2
    48    25    27    1
@<TRIPOS>MOLECULE
UD1
 46 48 0 0 0
SMALL
GASTEIGER

@<TRIPOS>ATOM
      1 P          16.4159   71.5357   -2.6156 P.3     1  UNL1        0.2189
      2 O          15.5786   72.7550   -2.5877 O.2     1  UNL1       -0.5170
      3 O          16.7580   71.1543   -4.1421 O.3     1  UNL1       -0.4371
      4 O          15.6160   70.3201   -1.9262 O.3     1  UNL1       -0.3112
      5 C          14.4677   70.8866   -1.2931 C.3     1  UNL1        0.1811
      6 C          12.3728   68.2871    0.0417 C.3     1  UNL1        0.2383
      7 C          11.6394   69.6022    0.4062 C.3     1  UNL1        0.1895
      8 O          10.2257   69.4046    0.4471 O.3     1  UNL1       -0.3779
      9 C          12.0343   70.5322   -0.7704 C.3     1  UNL1        0.1713
     10 C          13.3107   69.8876   -1.3449 C.3     1  UNL1        0.1764
     11 O          13.6169   68.7421   -0.5317 O.3     1  UNL1       -0.3308
     12 O          10.9967   70.5643   -1.7528 O.3     1  UNL1       -0.3794
     13 H           9.8304   70.2564    0.6787 H       1  UNL1        0.2106
     14 H          10.2108   70.9206   -1.3173 H       1  UNL1        0.2105
     15 N          12.6200   67.4815    1.2380 N.ar    1  UNL1       -0.2551
     16 C          11.7395   66.5301    1.5943 C.ar    1  UNL1        0.3323
     17 N          11.9432   65.7714    2.6875 N.ar    1  UNL1       -0.2743
     18 C          13.0370   65.9620    3.4526 C.ar    1  UNL1        0.2626
     19 C          13.9690   66.9642    3.0925 C.ar    1  UNL1        0.0795
     20 C          13.7428   67.7072    1.9879 C.ar    1  UNL1        0.0869
     21 O          10.7483   66.3462    0.9143 O.2     1  UNL1       -0.2464
     22 O          13.2197   65.2799    4.4439 O.2     1  UNL1       -0.2670
     23 H          11.3001   65.0865    2.9270 H       1  UNL1        0.1734
     24 O          17.7822   71.8043   -1.8094 O.3     1  UNL1       -0.2703
     25 P          18.8959   70.8323   -2.4452 P.3     1  UNL1        0.2208
     26 O          18.2819   69.5267   -2.7729 O.2     1  UNL1       -0.5170
     27 O          20.0868   70.6131   -1.3840 O.3     1  UNL1       -0.4371
     28 O          19.4890   71.4977   -3.7853 O.3     1  UNL1       -0.2865
     29 C          20.5336   70.6394   -4.2470 C.3     1  UNL1        0.2611
     30 C          21.8383   71.4333   -4.3340 C.3     1  UNL1        0.1582
     31 C          21.6439   72.6133   -5.2929 C.3     1  UNL1        0.1625
     32 C          21.1161   72.0780   -6.6282 C.3     1  UNL1        0.1686
     33 C          19.8640   71.2378   -6.3683 C.3     1  UNL1        0.1760
     34 O          22.8939   73.2741   -5.4986 O.3     1  UNL1       -0.3801
     35 O          20.7892   73.1727   -7.4863 O.3     1  UNL1       -0.3794
     36 O          20.1928   70.1280   -5.5337 O.3     1  UNL1       -0.3263
     37 H          22.7256   74.0077   -6.1059 H       1  UNL1        0.2105
     38 H          20.4611   72.7917   -8.3131 H       1  UNL1        0.2105
     39 C          23.3631   71.5713   -2.4393 C.2     1  UNL1        0.2231
     40 C          23.7309   72.0871   -1.0715 C.3     1  UNL1        0.0946
     41 N          22.1962   71.9346   -3.0055 N.am    1  UNL1       -0.2994
     42 O          24.1175   70.8283   -3.0301 O.2     1  UNL1       -0.2751
     43 H          21.5922   72.5290   -2.5328 H       1  UNL1        0.1496
     44 C          19.3101   70.7251   -7.6993 C.3     1  UNL1        0.1693
     45 O          18.4341   71.7049   -8.2603 O.3     1  UNL1       -0.3794
     46 H          18.1078   71.3431   -9.0953 H       1  UNL1        0.2105
@<TRIPOS>BOND
     1    29    30    1
     2    29    28    1
     3    29    36    1
     4    30    31    1
     5    30    41    1
     6    31    32    1
     7    31    34    1
     8    32    33    1
     9    32    35    1
    10    33    44    1
    11    33    36    1
    12    44    45    1
    13    39    40    1
    14    39    41   am
    15    39    42    2
    16    41    43    1
    17    28    25    1
    18    34    37    1
    19    35    38    1
    20    45    46    1
    21    15    16   ar
    22    15    20   ar
    23    15     6    1
    24    16    17   ar
    25    16    21    2
    26    17    18   ar
    27    17    23    1
    28    18    19   ar
    29    18    22    2
    30    19    20   ar
    31     6     7    1
    32     6    11    1
    33     7     8    1
    34     7     9    1
    35     8    13    1
    36     9    10    1
    37     9    12    1
    38    10    11    1
    39    10     5    1
    40    12    14    1
    41     5     4    1
    42     4     1    1
    43     1     2    2
    44     1     3    1
    45     1    24    1
    46    24    25    1
    47    25    26    2
    48    25    27    1
@<TRIPOS>MOLECULE
UD1
 46 48 0 0 0
SMALL
GASTEIGER

@<TRIPOS>ATOM
      1 P          20.9259   70.8605   -3.4713 P.3     1  UNL1        0.2189
      2 O          21.7496   71.4571   -4.5457 O.2     1  UNL1       -0.5170
      3 O          20.3908   69.4173   -3.9440 O.3     1  UNL1       -0.4371
      4 O          19.6718   71.8215   -3.1609 O.3     1  UNL1       -0.3112
      5 C          18.6669   71.0076   -2.5541 C.3     1  UNL1        0.1811
      6 C          17.0143   70.5872   -5.7195 C.3     1  UNL1        0.2383
      7 C          17.0251   69.1690   -5.0959 C.3     1  UNL1        0.1895
      8 O          15.8865   68.4169   -5.5166 O.3     1  UNL1       -0.3779
      9 C          16.9529   69.4801   -3.5783 C.3     1  UNL1        0.1713
     10 C          17.4446   70.9365   -3.4708 C.3     1  UNL1        0.1764
     11 O          17.8008   71.3685   -4.7951 O.3     1  UNL1       -0.3308
     12 O          15.6086   69.3630   -3.1070 O.3     1  UNL1       -0.3794
     13 H          15.9532   67.5485   -5.0960 H       1  UNL1        0.2106
     14 H          15.3393   68.4469   -3.2558 H       1  UNL1        0.2105
     15 N          17.6350   70.5766   -7.0447 N.ar    1  UNL1       -0.2551
     16 C          16.8629   70.4847   -8.1414 C.ar    1  UNL1        0.3323
     17 N          17.4063   70.4767   -9.3730 N.ar    1  UNL1       -0.2743
     18 C          18.7438   70.5520   -9.5260 C.ar    1  UNL1        0.2626
     19 C          19.5688   70.6432   -8.3797 C.ar    1  UNL1        0.0795
     20 C          18.9971   70.6546   -7.1565 C.ar    1  UNL1        0.0869
     21 O          15.6550   70.4161   -8.0196 O.2     1  UNL1       -0.2464
     22 O          19.2365   70.5401  -10.6389 O.2     1  UNL1       -0.2670
     23 H          16.8340   70.4146  -10.1532 H       1  UNL1        0.1734
     24 O          21.8166   70.6946   -2.1416 O.3     1  UNL1       -0.2703
     25 P          23.0487   71.7208   -2.2763 P.3     1  UNL1        0.2208
     26 O          22.6145   72.9161   -3.0324 O.2     1  UNL1       -0.5170
     27 O          24.2617   71.0048   -3.0562 O.3     1  UNL1       -0.4371
     28 O          23.5426   72.1637   -0.8099 O.3     1  UNL1       -0.2865
     29 C          22.7623   73.3005   -0.4355 C.3     1  UNL1        0.2611
     30 C          23.6960   74.4558   -0.0704 C.3     1  UNL1        0.1582
     31 C          24.6054   74.0198    1.0839 C.3     1  UNL1        0.1625
     32 C          23.7292   73.5025    2.2297 C.3     1  UNL1        0.1686
     33 C          22.7950   72.4167    1.6916 C.3     1  UNL1        0.1760
     34 O          25.3773   75.1351    1.5329 O.3     1  UNL1       -0.3801
     35 O          24.5588   72.9554    3.2563 O.3     1  UNL1       -0.3794
     36 O          21.9459   72.9667    0.6850 O.3     1  UNL1       -0.3263
     37 H          25.9336   74.8165    2.2571 H       1  UNL1        0.2105
     38 H          23.9681   72.6416    3.9557 H       1  UNL1        0.2105
     39 C          24.7457   76.1050   -1.5238 C.2     1  UNL1        0.2231
     40 C          25.5873   76.4698   -2.7201 C.3     1  UNL1        0.0946
     41 N          24.5138   74.8107   -1.2321 N.am    1  UNL1       -0.2994
     42 O          24.2766   76.9770   -0.8240 O.2     1  UNL1       -0.2751
     43 H          24.8889   74.1127   -1.7921 H       1  UNL1        0.1496
     44 C          21.9378   71.8705    2.8352 C.3     1  UNL1        0.1693
     45 O          21.6758   72.9144    3.7753 O.3     1  UNL1       -0.3794
     46 H          21.1349   72.5290    4.4778 H       1  UNL1        0.2105
@<TRIPOS>BOND
     1    29    30    1
     2    29    28    1
     3    29    36    1
     4    30    31    1
     5    30    41    1
     6    31    32    1
     7    31    34    1
     8    32    33    1
     9    32    35    1
    10    33    44    1
    11    33    36    1
    12    44    45    1
    13    39    40    1
    14    39    41   am
    15    39    42    2
    16    41    43    1
    17    28    25    1
    18    34    37    1
    19    35    38    1
    20    45    46    1
    21    15    16   ar
    22    15    20   ar
    23    15     6    1
    24    16    17   ar
    25    16    21    2
    26    17    18   ar
    27    17    23    1
    28    18    19   ar
    29    18    22    2
    30    19    20   ar
    31     6     7    1
    32     6    11    1
    33     7     8    1
    34     7     9    1
    35     8    13    1
    36     9    10    1
    37     9    12    1
    38    10    11    1
    39    10     5    1
    40    12    14    1
    41     5     4    1
    42     4     1    1
    43     1     2    2
    44     1     3    1
    45     1    24    1
    46    24    25    1
    47    25    26    2
    48    25    27    1
@<TRIPOS>MOLECULE
UD1
 46 48 0 0 0
SMALL
GASTEIGER

@<TRIPOS>ATOM
      1 P          21.3354   71.8012   -0.8671 P.3     1  UNL1        0.2189
      2 O          20.4716   70.6387   -0.5651 O.2     1  UNL1       -0.5170
      3 O          22.8406   71.2962   -1.1354 O.3     1  UNL1       -0.4371
      4 O          21.3257   72.8156    0.3834 O.3     1  UNL1       -0.3112
      5 C          22.0636   72.1866    1.4323 C.3     1  UNL1        0.1811
      6 C          25.0834   73.5364    2.8416 C.3     1  UNL1        0.2383
      7 C          25.0133   74.1451    1.4186 C.3     1  UNL1        0.1895
      8 O          25.6203   75.4372    1.3849 O.3     1  UNL1       -0.3779
      9 C          23.4838   74.2459    1.1826 C.3     1  UNL1        0.1713
     10 C          22.8835   73.2379    2.1817 C.3     1  UNL1        0.1764
     11 O          23.9794   72.6068    2.8659 O.3     1  UNL1       -0.3308
     12 O          23.0211   75.5697    1.4587 O.3     1  UNL1       -0.3794
     13 H          25.5441   75.7589    0.4759 H       1  UNL1        0.2106
     14 H          23.4764   76.1589    0.8424 H       1  UNL1        0.2105
     15 N          26.3522   72.8363    3.0451 N.ar    1  UNL1       -0.2551
     16 C          26.5276   71.6098    2.5233 C.ar    1  UNL1        0.3323
     17 N          27.6855   70.9441    2.6913 N.ar    1  UNL1       -0.2743
     18 C          28.6911   71.4978    3.3985 C.ar    1  UNL1        0.2626
     19 C          28.5178   72.7859    3.9584 C.ar    1  UNL1        0.0795
     20 C          27.3480   73.4335    3.7700 C.ar    1  UNL1        0.0869
     21 O          25.6299   71.0972    1.8828 O.2     1  UNL1       -0.2464
     22 O          29.7368   70.8948    3.5551 O.2     1  UNL1       -0.2670
     23 H          27.7964   70.0622    2.3038 H       1  UNL1        0.1734
     24 O          20.7806   72.5567   -2.1749 O.3     1  UNL1       -0.2703
     25 P          21.3450   71.7537   -3.4501 P.3     1  UNL1        0.2208
     26 O          21.6122   70.3492   -3.0697 O.2     1  UNL1       -0.5170
     27 O          22.7102   72.4407   -3.9565 O.3     1  UNL1       -0.4371
     28 O          20.2558   71.7909   -4.6345 O.3     1  UNL1       -0.2865
     29 C          20.2870   70.5101   -5.2667 C.3     1  UNL1        0.2611
     30 C          20.3200   70.6969   -6.7846 C.3     1  UNL1        0.1582
     31 C          19.0794   71.4850   -7.2197 C.3     1  UNL1        0.1625
     32 C          17.8336   70.7770   -6.6768 C.3     1  UNL1        0.1686
     33 C          17.9869   70.5869   -5.1663 C.3     1  UNL1        0.1760
     34 O          19.0212   71.5370   -8.6464 O.3     1  UNL1       -0.3801
     35 O          16.6771   71.5720   -6.9449 O.3     1  UNL1       -0.3794
     36 O          19.1257   69.7703   -4.8962 O.3     1  UNL1       -0.3263
     37 H          18.2280   72.0407   -8.8755 H       1  UNL1        0.2105
     38 H          15.9177   71.0909   -6.5867 H       1  UNL1        0.2105
     39 C          21.4933   72.7780   -7.2608 C.2     1  UNL1        0.2231
     40 C          22.7362   73.5374   -7.6490 C.3     1  UNL1        0.0946
     41 N          21.5273   71.4352   -7.1613 N.am    1  UNL1       -0.2994
     42 O          20.4621   73.3758   -7.0385 O.2     1  UNL1       -0.2751
     43 H          22.3523   70.9565   -7.3393 H       1  UNL1        0.1496
     44 C          16.7333   69.9095   -4.6089 C.3     1  UNL1        0.1693
     45 O          17.0875   68.6499   -4.0344 O.3     1  UNL1       -0.3794
     46 H          16.2714   68.2572   -3.6963 H       1  UNL1        0.2105
@<TRIPOS>BOND
     1    29    30    1
     2    29    28    1
     3    29    36    1
     4    30    31    1
     5    30    41    1
     6    31    32    1
     7    31    34    1
     8    32    33    1
     9    32    35    1
    10    33    44    1
    11    33    36    1
    12    44    45    1
    13    39    40    1
    14    39    41   am
    15    39    42    2
    16    41    43    1
    17    28    25    1
    18    34    37    1
    19    35    38    1
    20    45    46    1
    21    15    16   ar
    22    15    20   ar
    23    15     6    1
    24    16    17   ar
    25    16    21    2
    26    17    18   ar
    27    17    23    1
    28    18    19   ar
    29    18    22    2
    30    19    20   ar
    31     6     7    1
    32     6    11    1
    33     7     8    1
    34     7     9    1
    35     8    13    1
    36     9    10    1
    37     9    12    1
    38    10    11    1
    39    10     5    1
    40    12    14    1
    41     5     4    1
    42     4     1    1
    43     1     2    2
    44     1     3    1
    45     1    24    1
    46    24    25    1
    47    25    26    2
    48    25    27    1
@<TRIPOS>MOLECULE
UD1
 46 48 0 0 0
SMALL
GASTEIGER

@<TRIPOS>ATOM
      1 P          16.2648   70.4485   -3.0009 P.3     1  UNL1        0.2189
      2 O          16.0820   68.9804   -2.9858 O.2     1  UNL1       -0.5170
      3 O          17.6366   70.8264   -2.2474 O.3     1  UNL1       -0.4371
      4 O          15.0279   71.1504   -2.2456 O.3     1  UNL1       -0.3112
      5 C          14.9001   70.5086   -0.9760 C.3     1  UNL1        0.1811
      6 C          12.6347   68.1148    0.4612 C.3     1  UNL1        0.2383
      7 C          11.9771   69.4891    0.7425 C.3     1  UNL1        0.1895
      8 O          10.5537   69.3785    0.7705 O.3     1  UNL1       -0.3779
      9 C          12.4430   70.3285   -0.4756 C.3     1  UNL1        0.1713
     10 C          13.6858   69.5789   -0.9934 C.3     1  UNL1        0.1764
     11 O          13.9115   68.4632   -0.1150 O.3     1  UNL1       -0.3308
     12 O          11.4224   70.3687   -1.4753 O.3     1  UNL1       -0.3794
     13 H          10.2073   70.2636    0.9495 H       1  UNL1        0.2106
     14 H          10.6537   70.7943   -1.0726 H       1  UNL1        0.2105
     15 N          12.8169   67.3623    1.7029 N.ar    1  UNL1       -0.2551
     16 C          12.5125   66.0534    1.7396 C.ar    1  UNL1        0.3323
     17 N          12.6737   65.3355    2.8669 N.ar    1  UNL1       -0.2743
     18 C          13.1378   65.9249    3.9872 C.ar    1  UNL1        0.2626
     19 C          13.4565   67.3036    3.9643 C.ar    1  UNL1        0.0795
     20 C          13.2903   67.9987    2.8186 C.ar    1  UNL1        0.0869
     21 O          12.0930   65.5075    0.7372 O.2     1  UNL1       -0.2464
     22 O          13.2795   65.2779    5.0084 O.2     1  UNL1       -0.2670
     23 H          12.4536   64.3912    2.8740 H       1  UNL1        0.1734
     24 O          16.3273   70.9659   -4.5231 O.3     1  UNL1       -0.2703
     25 P          17.2579   69.9293   -5.3286 P.3     1  UNL1        0.2208
     26 O          16.6516   69.6445   -6.6477 O.2     1  UNL1       -0.5170
     27 O          17.3869   68.5603   -4.4912 O.3     1  UNL1       -0.4371
     28 O          18.7201   70.5690   -5.5370 O.3     1  UNL1       -0.2865
     29 C          18.5404   71.9804   -5.6664 C.3     1  UNL1        0.2611
     30 C          19.2180   72.4600   -6.9513 C.3     1  UNL1        0.1582
     31 C          20.7085   72.1073   -6.8937 C.3     1  UNL1        0.1625
     32 C          21.2963   72.6728   -5.5965 C.3     1  UNL1        0.1686
     33 C          20.4636   72.1745   -4.4134 C.3     1  UNL1        0.1760
     34 O          21.3800   72.6804   -8.0172 O.3     1  UNL1       -0.3801
     35 O          22.6474   72.2311   -5.4515 O.3     1  UNL1       -0.3794
     36 O          19.1196   72.6370   -4.5409 O.3     1  UNL1       -0.3263
     37 H          22.3120   72.4339   -7.9412 H       1  UNL1        0.2105
     38 H          22.9778   72.6084   -4.6239 H       1  UNL1        0.2105
     39 C          19.1714   70.7031   -8.6381 C.2     1  UNL1        0.2231
     40 C          18.5374   70.0258   -9.8262 C.3     1  UNL1        0.0946
     41 N          18.6022   71.8014   -8.1051 N.am    1  UNL1       -0.2994
     42 O          20.1947   70.2598   -8.1622 O.2     1  UNL1       -0.2751
     43 H          17.7834   72.1565   -8.4860 H       1  UNL1        0.1496
     44 C          21.0619   72.7075   -3.1099 C.3     1  UNL1        0.1693
     45 O          20.3336   72.1788   -1.9998 O.3     1  UNL1       -0.3794
     46 H          20.7416   72.5386   -1.2006 H       1  UNL1        0.2105
@<TRIPOS>BOND
     1    29    30    1
     2    29    28    1
     3    29    36    1
     4    30    31    1
     5    30    41    1
     6    31    32    1
     7    31    34    1
     8    32    33    1
     9    32    35    1
    10    33    44    1
    11    33    36    1
    12    44    45    1
    13    39    40    1
    14    39    41   am
    15    39    42    2
    16    41    43    1
    17    28    25    1
    18    34    37    1
    19    35    38    1
    20    45    46    1
    21    15    16   ar
    22    15    20   ar
    23    15     6    1
    24    16    17   ar
    25    16    21    2
    26    17    18   ar
    27    17    23    1
    28    18    19   ar
    29    18    22    2
    30    19    20   ar
    31     6     7    1
    32     6    11    1
    33     7     8    1
    34     7     9    1
    35     8    13    1
    36     9    10    1
    37     9    12    1
    38    10    11    1
    39    10     5    1
    40    12    14    1
    41     5     4    1
    42     4     1    1
    43     1     2    2
    44     1     3    1
    45     1    24    1
    46    24    25    1
    47    25    26    2
    48    25    27    1
@<TRIPOS>MOLECULE
UD1
 46 48 0 0 0
SMALL
GASTEIGER

@<TRIPOS>ATOM
      1 P          21.9390   72.9766   -6.5798 P.3     1  UNL1        0.2189
      2 O          22.5221   71.7829   -5.9288 O.2     1  UNL1       -0.5170
      3 O          21.7060   74.1284   -5.4789 O.3     1  UNL1       -0.4371
      4 O          20.5292   72.5855   -7.2524 O.3     1  UNL1       -0.3112
      5 C          20.7976   71.5591   -8.2089 C.3     1  UNL1        0.1811
      6 C          17.7838   70.0846   -6.9164 C.3     1  UNL1        0.2383
      7 C          17.2938   71.1083   -7.9711 C.3     1  UNL1        0.1895
      8 O          16.0750   70.6750   -8.5762 O.3     1  UNL1       -0.3779
      9 C          18.4556   71.0988   -8.9983 C.3     1  UNL1        0.1713
     10 C          19.6535   70.5440   -8.2036 C.3     1  UNL1        0.1764
     11 O          19.2071   70.3174   -6.8558 O.3     1  UNL1       -0.3308
     12 O          18.1410   70.2465  -10.1017 O.3     1  UNL1       -0.3794
     13 H          15.8250   71.3530   -9.2191 H       1  UNL1        0.2106
     14 H          17.3505   70.6123  -10.5206 H       1  UNL1        0.2105
     15 N          17.1630   70.3410   -5.6163 N.ar    1  UNL1       -0.2551
     16 C          16.4559   69.3700   -5.0125 C.ar    1  UNL1        0.3323
     17 N          15.8773   69.5764   -3.8147 N.ar    1  UNL1       -0.2743
     18 C          15.9915   70.7720   -3.2020 C.ar    1  UNL1        0.2626
     19 C          16.7281   71.8050   -3.8291 C.ar    1  UNL1        0.0795
     20 C          17.3026   71.5691   -5.0281 C.ar    1  UNL1        0.0869
     21 O          16.3439   68.2862   -5.5525 O.2     1  UNL1       -0.2464
     22 O          15.4648   70.9613   -2.1212 O.2     1  UNL1       -0.2670
     23 H          15.3749   68.8632   -3.3915 H       1  UNL1        0.1734
     24 O          22.9444   73.5138   -7.7153 O.3     1  UNL1       -0.2703
     25 P          22.9325   75.1203   -7.6246 P.3     1  UNL1        0.2208
     26 O          23.7429   75.5548   -6.4656 O.2     1  UNL1       -0.5170
     27 O          21.4184   75.6371   -7.4438 O.3     1  UNL1       -0.4371
     28 O          23.5518   75.7399   -8.9748 O.3     1  UNL1       -0.2865
     29 C          24.9267   75.3535   -9.0156 C.3     1  UNL1        0.2611
     30 C          25.7900   76.5869   -9.2866 C.3     1  UNL1        0.1582
     31 C          25.3644   77.2137  -10.6191 C.3     1  UNL1        0.1625
     32 C          25.4104   76.1341  -11.7055 C.3     1  UNL1        0.1686
     33 C          24.5730   74.9359  -11.2532 C.3     1  UNL1        0.1760
     34 O          26.2591   78.2755  -10.9562 O.3     1  UNL1       -0.3801
     35 O          24.8781   76.6586  -12.9233 O.3     1  UNL1       -0.3794
     36 O          25.1184   74.3926  -10.0516 O.3     1  UNL1       -0.3263
     37 H          25.9547   78.6404  -11.7985 H       1  UNL1        0.2105
     38 H          24.9251   75.9477  -13.5783 H       1  UNL1        0.2105
     39 C          26.6414   77.8753   -7.4026 C.2     1  UNL1        0.2231
     40 C          26.4535   78.8758   -6.2909 C.3     1  UNL1        0.0946
     41 N          25.6081   77.5591   -8.2068 N.am    1  UNL1       -0.2994
     42 O          27.7229   77.3542   -7.5729 O.2     1  UNL1       -0.2751
     43 H          24.7425   77.9758   -8.0705 H       1  UNL1        0.1496
     44 C          24.5859   73.8648  -12.3458 C.3     1  UNL1        0.1693
     45 O          23.5035   72.9558  -12.1350 O.3     1  UNL1       -0.3794
     46 H          23.5481   72.2988  -12.8428 H       1  UNL1        0.2105
@<TRIPOS>BOND
     1    29    30    1
     2    29    28    1
     3    29    36    1
     4    30    31    1
     5    30    41    1
     6    31    32    1
     7    31    34    1
     8    32    33    1
     9    32    35    1
    10    33    44    1
    11    33    36    1
    12    44    45    1
    13    39    40    1
    14    39    41   am
    15    39    42    2
    16    41    43    1
    17    28    25    1
    18    34    37    1
    19    35    38    1
    20    45    46    1
    21    15    16   ar
    22    15    20   ar
    23    15     6    1
    24    16    17   ar
    25    16    21    2
    26    17    18   ar
    27    17    23    1
    28    18    19   ar
    29    18    22    2
    30    19    20   ar
    31     6     7    1
    32     6    11    1
    33     7     8    1
    34     7     9    1
    35     8    13    1
    36     9    10    1
    37     9    12    1
    38    10    11    1
    39    10     5    1
    40    12    14    1
    41     5     4    1
    42     4     1    1
    43     1     2    2
    44     1     3    1
    45     1    24    1
    46    24    25    1
    47    25    26    2
    48    25    27    1
@<TRIPOS>MOLECULE
UD1
 46 48 0 0 0
SMALL
GASTEIGER

@<TRIPOS>ATOM
      1 P          21.1598   71.8608   -1.0258 P.3     1  UNL1        0.2189
      2 O          20.5377   70.6856   -0.3773 O.2     1  UNL1       -0.5170
      3 O          20.0187   72.9324   -1.4029 O.3     1  UNL1       -0.4371
      4 O          21.9198   71.3936   -2.3663 O.3     1  UNL1       -0.3112
      5 C          21.4925   72.2691   -3.4109 C.3     1  UNL1        0.1811
      6 C          20.4153   71.0587   -6.6206 C.3     1  UNL1        0.2383
      7 C          20.9468   72.4864   -6.9025 C.3     1  UNL1        0.1895
      8 O          21.4909   72.5784   -8.2196 O.3     1  UNL1       -0.3779
      9 C          22.0592   72.6369   -5.8324 C.3     1  UNL1        0.1713
     10 C          21.6960   71.5870   -4.7646 C.3     1  UNL1        0.1764
     11 O          20.4741   70.9546   -5.1821 O.3     1  UNL1       -0.3308
     12 O          23.3409   72.3595   -6.4006 O.3     1  UNL1       -0.3794
     13 H          21.8022   73.4873   -8.3313 H       1  UNL1        0.2106
     14 H          23.4835   73.0113   -7.0998 H       1  UNL1        0.2105
     15 N          19.0376   70.9148   -7.0926 N.ar    1  UNL1       -0.2551
     16 C          18.7976   70.3322   -8.2802 C.ar    1  UNL1        0.3323
     17 N          17.5404   70.1830   -8.7376 N.ar    1  UNL1       -0.2743
     18 C          16.4955   70.6271   -8.0103 C.ar    1  UNL1        0.2626
     19 C          16.7342   71.2476   -6.7609 C.ar    1  UNL1        0.0795
     20 C          18.0049   71.3797   -6.3237 C.ar    1  UNL1        0.0869
     21 O          19.7295   69.9265   -8.9477 O.2     1  UNL1       -0.2464
     22 O          15.3587   70.4970   -8.4250 O.2     1  UNL1       -0.2670
     23 H          17.3854   69.7561   -9.5943 H       1  UNL1        0.1734
     24 O          22.2169   72.5338   -0.0167 O.3     1  UNL1       -0.2703
     25 P          22.6308   71.3997    1.0473 P.3     1  UNL1        0.2208
     26 O          23.9886   70.9023    0.7348 O.2     1  UNL1       -0.5170
     27 O          21.5822   70.1805    0.9684 O.3     1  UNL1       -0.4371
     28 O          22.6160   72.0231    2.5311 O.3     1  UNL1       -0.2865
     29 C          22.8299   73.4288    2.3922 C.3     1  UNL1        0.2611
     30 C          23.7793   73.9063    3.4925 C.3     1  UNL1        0.1582
     31 C          23.1644   73.5850    4.8593 C.3     1  UNL1        0.1625
     32 C          21.7526   74.1784    4.9134 C.3     1  UNL1        0.1686
     33 C          20.9551   73.6778    3.7073 C.3     1  UNL1        0.1760
     34 O          23.9680   74.1578    5.8925 O.3     1  UNL1       -0.3801
     35 O          21.1069   73.7664    6.1196 O.3     1  UNL1       -0.3794
     36 O          21.5825   74.1111    2.5010 O.3     1  UNL1       -0.3263
     37 H          23.5459   73.9315    6.7327 H       1  UNL1        0.2105
     38 H          20.2231   74.1606    6.1124 H       1  UNL1        0.2105
     39 C          26.2128   73.8859    3.6020 C.2     1  UNL1        0.2231
     40 C          27.5377   73.1800    3.4653 C.3     1  UNL1        0.0946
     41 N          25.0666   73.2210    3.3603 N.am    1  UNL1       -0.2994
     42 O          26.1785   75.0529    3.9290 O.2     1  UNL1       -0.2751
     43 H          25.0938   72.2870    3.0984 H       1  UNL1        0.1496
     44 C          19.5330   74.2390    3.7693 C.3     1  UNL1        0.1693
     45 O          19.5660   75.6483    3.5347 O.3     1  UNL1       -0.3794
     46 H          18.6525   75.9614    3.5826 H       1  UNL1        0.2105
@<TRIPOS>BOND
     1    29    30    1
     2    29    28    1
     3    29    36    1
     4    30    31    1
     5    30    41    1
     6    31    32    1
     7    31    34    1
     8    32    33    1
     9    32    35    1
    10    33    44    1
    11    33    36    1
    12    44    45    1
    13    39    40    1
    14    39    41   am
    15    39    42    2
    16    41    43    1
    17    28    25    1
    18    34    37    1
    19    35    38    1
    20    45    46    1
    21    15    16   ar
    22    15    20   ar
    23    15     6    1
    24    16    17   ar
    25    16    21    2
    26    17    18   ar
    27    17    23    1
    28    18    19   ar
    29    18    22    2
    30    19    20   ar
    31     6     7    1
    32     6    11    1
    33     7     8    1
    34     7     9    1
    35     8    13    1
    36     9    10    1
    37     9    12    1
    38    10    11    1
    39    10     5    1
    40    12    14    1
    41     5     4    1
    42     4     1    1
    43     1     2    2
    44     1     3    1
    45     1    24    1
    46    24    25    1
    47    25    26    2
    48    25    27    1
@<TRIPOS>MOLECULE
UD1
 46 48 0 0 0
SMALL
GASTEIGER

@<TRIPOS>ATOM
      1 P          15.5655   70.3343   -2.1266 P.3     1  UNL1        0.2189
      2 O          16.4445   71.3040   -1.4368 O.2     1  UNL1       -0.5170
      3 O          14.0824   70.9486   -2.2515 O.3     1  UNL1       -0.4371
      4 O          15.5089   68.9656   -1.2803 O.3     1  UNL1       -0.3112
      5 C          14.7240   69.2307   -0.1166 C.3     1  UNL1        0.1811
      6 C          13.0803   67.0114    2.1855 C.3     1  UNL1        0.2383
      7 C          11.9589   67.9604    1.6934 C.3     1  UNL1        0.1895
      8 O          10.6948   67.2961    1.6837 O.3     1  UNL1       -0.3779
      9 C          12.4216   68.2905    0.2505 C.3     1  UNL1        0.1713
     10 C          13.9306   67.9788    0.2607 C.3     1  UNL1        0.1764
     11 O          14.2748   67.5652    1.5940 O.3     1  UNL1       -0.3308
     12 O          11.7397   67.4637   -0.6951 O.3     1  UNL1       -0.3794
     13 H          10.0432   67.9383    1.3698 H       1  UNL1        0.2106
     14 H          10.7975   67.6621   -0.6113 H       1  UNL1        0.2105
     15 N          13.1717   67.0288    3.6459 N.ar    1  UNL1       -0.2551
     16 C          12.9540   65.8986    4.3406 C.ar    1  UNL1        0.3323
     17 N          13.0352   65.8844    5.6843 N.ar    1  UNL1       -0.2743
     18 C          13.3293   67.0140    6.3592 C.ar    1  UNL1        0.2626
     19 C          13.5549   68.2122    5.6407 C.ar    1  UNL1        0.0795
     20 C          13.4723   68.1970    4.2930 C.ar    1  UNL1        0.0869
     21 O          12.6879   64.8718    3.7462 O.2     1  UNL1       -0.2464
     22 O          13.3983   67.0033    7.5744 O.2     1  UNL1       -0.2670
     23 H          12.8799   65.0591    6.1690 H       1  UNL1        0.1734
     24 O          16.1479   70.0327   -3.5959 O.3     1  UNL1       -0.2703
     25 P          17.6631   69.5273   -3.4006 P.3     1  UNL1        0.2208
     26 O          17.8038   68.1638   -3.9573 O.2     1  UNL1       -0.5170
     27 O          18.0243   69.5055   -1.8318 O.3     1  UNL1       -0.4371
     28 O          18.6662   70.5259   -4.1669 O.3     1  UNL1       -0.2865
     29 C          19.9537   69.9066   -4.1590 C.3     1  UNL1        0.2611
     30 C          20.9537   70.8294   -3.4602 C.3     1  UNL1        0.1582
     31 C          21.0025   72.1696   -4.2026 C.3     1  UNL1        0.1625
     32 C          21.2891   71.8995   -5.6834 C.3     1  UNL1        0.1686
     33 C          20.2617   70.8981   -6.2154 C.3     1  UNL1        0.1760
     34 O          22.0386   72.9847   -3.6517 O.3     1  UNL1       -0.3801
     35 O          21.1937   73.1207   -6.4192 O.3     1  UNL1       -0.3794
     36 O          20.3729   69.6678   -5.5009 O.3     1  UNL1       -0.3263
     37 H          22.0334   73.8155   -4.1467 H       1  UNL1        0.2105
     38 H          21.3800   72.9053   -7.3440 H       1  UNL1        0.2105
     39 C          21.4495   71.1107   -1.0918 C.2     1  UNL1        0.2231
     40 C          21.0143   71.3379    0.3334 C.3     1  UNL1        0.0946
     41 N          20.5315   71.0506   -2.0756 N.am    1  UNL1       -0.2994
     42 O          22.6265   70.9814   -1.3530 O.2     1  UNL1       -0.2751
     43 H          19.5895   71.1538   -1.8668 H       1  UNL1        0.1496
     44 C          20.5194   70.6462   -7.7024 C.3     1  UNL1        0.1693
     45 O          19.8747   71.6598   -8.4764 O.3     1  UNL1       -0.3794
     46 H          20.0612   71.4642   -9.4046 H       1  UNL1        0.2105
@<TRIPOS>BOND
     1    29    30    1
     2    29    28    1
     3    29    36    1
     4    30    31    1
     5    30    41    1
     6    31    32    1
     7    31    34    1
     8    32    33    1
     9    32    35    1
    10    33    44    1
    11    33    36    1
    12    44    45    1
    13    39    40    1
    14    39    41   am
    15    39    42    2
    16    41    43    1
    17    28    25    1
    18    34    37    1
    19    35    38    1
    20    45    46    1
    21    15    16   ar
    22    15    20   ar
    23    15     6    1
    24    16    17   ar
    25    16    21    2
    26    17    18   ar
    27    17    23    1
    28    18    19   ar
    29    18    22    2
    30    19    20   ar
    31     6     7    1
    32     6    11    1
    33     7     8    1
    34     7     9    1
    35     8    13    1
    36     9    10    1
    37     9    12    1
    38    10    11    1
    39    10     5    1
    40    12    14    1
    41     5     4    1
    42     4     1    1
    43     1     2    2
    44     1     3    1
    45     1    24    1
    46    24    25    1
    47    25    26    2
    48    25    27    1
@<TRIPOS>MOLECULE
UD1
 46 48 0 0 0
SMALL
GASTEIGER

@<TRIPOS>ATOM
      1 P          20.7770   72.4841   -2.0256 P.3     1  UNL1        0.2189
      2 O          20.7336   73.9079   -1.6260 O.2     1  UNL1       -0.5170
      3 O          21.1465   72.3764   -3.5890 O.3     1  UNL1       -0.4371
      4 O          19.3371   71.8109   -1.7679 O.3     1  UNL1       -0.3112
      5 C          19.2483   70.6791   -2.6348 C.3     1  UNL1        0.1811
      6 C          17.3443   70.5390   -5.6815 C.3     1  UNL1        0.2383
      7 C          17.2435   69.1088   -5.0947 C.3     1  UNL1        0.1895
      8 O          16.0032   68.4967   -5.4500 O.3     1  UNL1       -0.3779
      9 C          17.3110   69.3773   -3.5687 C.3     1  UNL1        0.1713
     10 C          17.9650   70.7685   -3.4620 C.3     1  UNL1        0.1764
     11 O          18.2735   71.2018   -4.7978 O.3     1  UNL1       -0.3308
     12 O          15.9979   69.3900   -3.0044 O.3     1  UNL1       -0.3794
     13 H          16.0038   67.6133   -5.0563 H       1  UNL1        0.2106
     14 H          15.6206   68.5132   -3.1554 H       1  UNL1        0.2105
     15 N          17.8668   70.5042   -7.0479 N.ar    1  UNL1       -0.2551
     16 C          17.0150   70.4269   -8.0852 C.ar    1  UNL1        0.3323
     17 N          17.4673   70.3972   -9.3528 N.ar    1  UNL1       -0.2743
     18 C          18.7917   70.4357   -9.6027 C.ar    1  UNL1        0.2626
     19 C          19.6997   70.5111   -8.5199 C.ar    1  UNL1        0.0795
     20 C          19.2187   70.5448   -7.2586 C.ar    1  UNL1        0.0869
     21 O          15.8177   70.3915   -7.8759 O.2     1  UNL1       -0.2464
     22 O          19.2019   70.4041  -10.7482 O.2     1  UNL1       -0.2670
     23 H          16.8384   70.3462  -10.0891 H       1  UNL1        0.1734
     24 O          21.8916   71.7162   -1.1556 O.3     1  UNL1       -0.2703
     25 P          21.3640   71.6987    0.3645 P.3     1  UNL1        0.2208
     26 O          21.1378   70.3005    0.7919 O.2     1  UNL1       -0.5170
     27 O          19.9825   72.5195    0.4634 O.3     1  UNL1       -0.4371
     28 O          22.4620   72.3817    1.3229 O.3     1  UNL1       -0.2865
     29 C          22.1612   73.7776    1.3689 C.3     1  UNL1        0.2611
     30 C          23.4068   74.5758    0.9799 C.3     1  UNL1        0.1582
     31 C          24.5436   74.2350    1.9500 C.3     1  UNL1        0.1625
     32 C          24.0481   74.4569    3.3830 C.3     1  UNL1        0.1686
     33 C          22.7555   73.6651    3.5916 C.3     1  UNL1        0.1760
     34 O          25.6645   75.0823    1.6908 O.3     1  UNL1       -0.3801
     35 O          25.0406   74.0064    4.3070 O.3     1  UNL1       -0.3794
     36 O          21.7535   74.1313    2.6888 O.3     1  UNL1       -0.3263
     37 H          26.3542   74.8340    2.3216 H       1  UNL1        0.2105
     38 H          24.6883   74.1635    5.1945 H       1  UNL1        0.2105
     39 C          24.1914   75.1915   -1.2426 C.2     1  UNL1        0.2231
     40 C          24.6014   74.8319   -2.6479 C.3     1  UNL1        0.0946
     41 N          23.8057   74.2269   -0.3852 N.am    1  UNL1       -0.2994
     42 O          24.2079   76.3496   -0.8837 O.2     1  UNL1       -0.2751
     43 H          23.7921   73.3001   -0.6722 H       1  UNL1        0.1496
     44 C          22.2697   73.8540    5.0301 C.3     1  UNL1        0.1693
     45 O          22.5018   72.6555    5.7730 O.3     1  UNL1       -0.3794
     46 H          22.1820   72.8166    6.6710 H       1  UNL1        0.2105
@<TRIPOS>BOND
     1    29    30    1
     2    29    28    1
     3    29    36    1
     4    30    31    1
     5    30    41    1
     6    31    32    1
     7    31    34    1
     8    32    33    1
     9    32    35    1
    10    33    44    1
    11    33    36    1
    12    44    45    1
    13    39    40    1
    14    39    41   am
    15    39    42    2
    16    41    43    1
    17    28    25    1
    18    34    37    1
    19    35    38    1
    20    45    46    1
    21    15    16   ar
    22    15    20   ar
    23    15     6    1
    24    16    17   ar
    25    16    21    2
    26    17    18   ar
    27    17    23    1
    28    18    19   ar
    29    18    22    2
    30    19    20   ar
    31     6     7    1
    32     6    11    1
    33     7     8    1
    34     7     9    1
    35     8    13    1
    36     9    10    1
    37     9    12    1
    38    10    11    1
    39    10     5    1
    40    12    14    1
    41     5     4    1
    42     4     1    1
    43     1     2    2
    44     1     3    1
    45     1    24    1
    46    24    25    1
    47    25    26    2
    48    25    27    1
@<TRIPOS>MOLECULE
UD1
 46 48 0 0 0
SMALL
GASTEIGER

@<TRIPOS>ATOM
      1 P          22.7585   71.3429   -3.0036 P.3     1  UNL1        0.2189
      2 O          24.1268   70.7833   -3.0622 O.2     1  UNL1       -0.5170
      3 O          22.5367   72.3490   -4.2411 O.3     1  UNL1       -0.4371
      4 O          22.5660   72.1445   -1.6204 O.3     1  UNL1       -0.3112
      5 C          23.7650   71.9620   -0.8659 C.3     1  UNL1        0.1811
      6 C          23.1543   72.3108    2.6601 C.3     1  UNL1        0.2383
      7 C          21.7537   72.4344    2.0094 C.3     1  UNL1        0.1895
      8 O          20.7386   71.9399    2.8836 O.3     1  UNL1       -0.3779
      9 C          21.8951   71.5296    0.7578 C.3     1  UNL1        0.1713
     10 C          23.4165   71.4416    0.5294 C.3     1  UNL1        0.1764
     11 O          24.0489   72.2597    1.5284 O.3     1  UNL1       -0.3308
     12 O          21.3450   70.2351    1.0115 O.3     1  UNL1       -0.3794
     13 H          19.8953   72.0453    2.4217 H       1  UNL1        0.2106
     14 H          20.4069   70.3634    1.2054 H       1  UNL1        0.2105
     15 N          23.4440   73.4773    3.4948 N.ar    1  UNL1       -0.2551
     16 C          24.7203   73.8106    3.7540 C.ar    1  UNL1        0.3323
     17 N          25.0163   74.8807    4.5154 N.ar    1  UNL1       -0.2743
     18 C          24.0297   75.6344    5.0410 C.ar    1  UNL1        0.2626
     19 C          22.6815   75.2913    4.7811 C.ar    1  UNL1        0.0795
     20 C          22.4130   74.2160    4.0097 C.ar    1  UNL1        0.0869
     21 O          25.6212   73.1406    3.2871 O.2     1  UNL1       -0.2464
     22 O          24.2961   76.5993    5.7335 O.2     1  UNL1       -0.2670
     23 H          25.9426   75.1093    4.6882 H       1  UNL1        0.1734
     24 O          21.6855   70.1467   -3.0843 O.3     1  UNL1       -0.2703
     25 P          20.2321   70.8128   -2.9022 P.3     1  UNL1        0.2208
     26 O          20.3706   72.2834   -2.8187 O.2     1  UNL1       -0.5170
     27 O          19.5535   70.2608   -1.5506 O.3     1  UNL1       -0.4371
     28 O          19.3043   70.4319   -4.1610 O.3     1  UNL1       -0.2865
     29 C          18.8426   71.6617   -4.7228 C.3     1  UNL1        0.2611
     30 C          17.3778   71.5095   -5.1366 C.3     1  UNL1        0.1582
     31 C          17.2608   70.3711   -6.1564 C.3     1  UNL1        0.1625
     32 C          18.2384   70.6400   -7.3054 C.3     1  UNL1        0.1686
     33 C          19.6390   70.8548   -6.7280 C.3     1  UNL1        0.1760
     34 O          15.9256   70.3167   -6.6621 O.3     1  UNL1       -0.3801
     35 O          18.2523   69.5203   -8.1929 O.3     1  UNL1       -0.3794
     36 O          19.6349   71.9892   -5.8623 O.3     1  UNL1       -0.3263
     37 H          15.8972   69.5886   -7.2980 H       1  UNL1        0.2105
     38 H          18.8796   69.7309   -8.8991 H       1  UNL1        0.2105
     39 C          16.3261   69.9156   -3.6241 C.2     1  UNL1        0.2231
     40 C          15.4897   69.5956   -2.4116 C.3     1  UNL1        0.0946
     41 N          16.5657   71.1982   -3.9585 N.am    1  UNL1       -0.2994
     42 O          16.7831   69.0182   -4.2994 O.2     1  UNL1       -0.2751
     43 H          16.2000   71.9165   -3.4184 H       1  UNL1        0.1496
     44 C          20.6292   71.0920   -7.8701 C.3     1  UNL1        0.1693
     45 O          19.9277   71.5792   -9.0158 O.3     1  UNL1       -0.3794
     46 H          20.5864   71.7148   -9.7104 H       1  UNL1        0.2105
@<TRIPOS>BOND
     1    29    30    1
     2    29    28    1
     3    29    36    1
     4    30    31    1
     5    30    41    1
     6    31    32    1
     7    31    34    1
     8    32    33    1
     9    32    35    1
    10    33    44    1
    11    33    36    1
    12    44    45    1
    13    39    40    1
    14    39    41   am
    15    39    42    2
    16    41    43    1
    17    28    25    1
    18    34    37    1
    19    35    38    1
    20    45    46    1
    21    15    16   ar
    22    15    20   ar
    23    15     6    1
    24    16    17   ar
    25    16    21    2
    26    17    18   ar
    27    17    23    1
    28    18    19   ar
    29    18    22    2
    30    19    20   ar
    31     6     7    1
    32     6    11    1
    33     7     8    1
    34     7     9    1
    35     8    13    1
    36     9    10    1
    37     9    12    1
    38    10    11    1
    39    10     5    1
    40    12    14    1
    41     5     4    1
    42     4     1    1
    43     1     2    2
    44     1     3    1
    45     1    24    1
    46    24    25    1
    47    25    26    2
    48    25    27    1
@<TRIPOS>MOLECULE
UD1
 46 48 0 0 0
SMALL
GASTEIGER

@<TRIPOS>ATOM
      1 P          22.4203   71.7336   -1.1681 P.3     1  UNL1        0.2189
      2 O          21.5625   70.6894   -1.7704 O.2     1  UNL1       -0.5170
      3 O          23.7849   71.0656   -0.6350 O.3     1  UNL1       -0.4371
      4 O          21.6435   72.4208    0.0637 O.3     1  UNL1       -0.3112
      5 C          22.1695   71.8424    1.2591 C.3     1  UNL1        0.1811
      6 C          24.9836   73.3959    2.8700 C.3     1  UNL1        0.2383
      7 C          24.9167   74.0657    1.4746 C.3     1  UNL1        0.1895
      8 O          25.3985   75.4089    1.5287 O.3     1  UNL1       -0.3779
      9 C          23.3960   74.0351    1.1713 C.3     1  UNL1        0.1713
     10 C          22.8526   72.9269    2.0938 C.3     1  UNL1        0.1764
     11 O          23.9733   72.3673    2.7996 O.3     1  UNL1       -0.3308
     12 O          22.7977   75.2945    1.4855 O.3     1  UNL1       -0.3794
     13 H          25.3309   75.7671    0.6328 H       1  UNL1        0.2106
     14 H          23.2206   75.9536    0.9190 H       1  UNL1        0.2105
     15 N          26.3036   72.8079    3.1010 N.ar    1  UNL1       -0.2551
     16 C          26.5927   71.5982    2.5907 C.ar    1  UNL1        0.3323
     17 N          27.8000   71.0349    2.7841 N.ar    1  UNL1       -0.2743
     18 C          28.7413   71.6762    3.5056 C.ar    1  UNL1        0.2626
     19 C          28.4482   72.9476    4.0537 C.ar    1  UNL1        0.0795
     20 C          27.2311   73.4919    3.8398 C.ar    1  UNL1        0.0869
     21 O          25.7542   71.0075    1.9376 O.2     1  UNL1       -0.2464
     22 O          29.8316   71.1657    3.6851 O.2     1  UNL1       -0.2670
     23 H          27.9930   70.1637    2.4046 H       1  UNL1        0.1734
     24 O          22.7645   72.8496   -2.2748 O.3     1  UNL1       -0.2703
     25 P          23.5374   72.0973   -3.4689 P.3     1  UNL1        0.2208
     26 O          24.1845   70.8746   -2.9443 O.2     1  UNL1       -0.5170
     27 O          24.6588   73.0755   -4.0836 O.3     1  UNL1       -0.4371
     28 O          22.4873   71.6964   -4.6209 O.3     1  UNL1       -0.2865
     29 C          21.4788   72.7083   -4.6328 C.3     1  UNL1        0.2611
     30 C          20.1437   72.0858   -5.0451 C.3     1  UNL1        0.1582
     31 C          20.2927   71.4541   -6.4337 C.3     1  UNL1        0.1625
     32 C          20.8443   72.5110   -7.3964 C.3     1  UNL1        0.1686
     33 C          22.1285   73.0993   -6.8080 C.3     1  UNL1        0.1760
     34 O          19.0178   71.0018   -6.8934 O.3     1  UNL1       -0.3801
     35 O          21.1291   71.9055   -8.6589 O.3     1  UNL1       -0.3794
     36 O          21.8425   73.7290   -5.5597 O.3     1  UNL1       -0.3263
     37 H          19.1580   70.6123   -7.7674 H       1  UNL1        0.2105
     38 H          21.4739   72.6042   -9.2328 H       1  UNL1        0.2105
     39 C          18.4821   70.9488   -3.6738 C.2     1  UNL1        0.2231
     40 C          18.0910   69.8889   -2.6757 C.3     1  UNL1        0.0946
     41 N          19.7631   71.0561   -4.0760 N.am    1  UNL1       -0.2994
     42 O          17.6436   71.7056   -4.1144 O.2     1  UNL1       -0.2751
     43 H          20.4344   70.4507   -3.7233 H       1  UNL1        0.1496
     44 C          22.7052   74.1332   -7.7773 C.3     1  UNL1        0.1693
     45 O          23.5633   73.4806   -8.7153 O.3     1  UNL1       -0.3794
     46 H          23.9050   74.1657   -9.3057 H       1  UNL1        0.2105
@<TRIPOS>BOND
     1    29    30    1
     2    29    28    1
     3    29    36    1
     4    30    31    1
     5    30    41    1
     6    31    32    1
     7    31    34    1
     8    32    33    1
     9    32    35    1
    10    33    44    1
    11    33    36    1
    12    44    45    1
    13    39    40    1
    14    39    41   am
    15    39    42    2
    16    41    43    1
    17    28    25    1
    18    34    37    1
    19    35    38    1
    20    45    46    1
    21    15    16   ar
    22    15    20   ar
    23    15     6    1
    24    16    17   ar
    25    16    21    2
    26    17    18   ar
    27    17    23    1
    28    18    19   ar
    29    18    22    2
    30    19    20   ar
    31     6     7    1
    32     6    11    1
    33     7     8    1
    34     7     9    1
    35     8    13    1
    36     9    10    1
    37     9    12    1
    38    10    11    1
    39    10     5    1
    40    12    14    1
    41     5     4    1
    42     4     1    1
    43     1     2    2
    44     1     3    1
    45     1    24    1
    46    24    25    1
    47    25    26    2
    48    25    27    1
