@<TRIPOS>MOLECULE
GDU
 43 45 0 0 0
SMALL
GASTEIGER

@<TRIPOS>ATOM
      1 P          20.6561   71.3436   -2.1872 P.3     1  UNL1        0.2189
      2 O          21.9480   70.7865   -2.6455 O.2     1  UNL1       -0.5170
      3 O          20.7478   72.9508   -2.1496 O.3     1  UNL1       -0.4371
      4 O          19.4890   70.8962   -3.1994 O.3     1  UNL1       -0.3112
      5 C          18.2516   71.0714   -2.5076 C.3     1  UNL1        0.1811
      6 C          16.8128   70.5997   -5.7687 C.3     1  UNL1        0.2383
      7 C          16.8398   69.1802   -5.1463 C.3     1  UNL1        0.1895
      8 O          15.7566   68.3874   -5.6375 O.3     1  UNL1       -0.3779
      9 C          16.6623   69.4843   -3.6359 C.3     1  UNL1        0.1713
     10 C          17.0911   70.9569   -3.4977 C.3     1  UNL1        0.1764
     11 O          17.5116   71.4069   -4.7973 O.3     1  UNL1       -0.3308
     12 O          15.2970   69.3154   -3.2494 O.3     1  UNL1       -0.3794
     13 H          15.8308   67.5209   -5.2139 H       1  UNL1        0.2106
     14 H          15.0717   68.3898   -3.4143 H       1  UNL1        0.2105
     15 N          17.5146   70.6155   -7.0532 N.ar    1  UNL1       -0.2551
     16 C          16.8126   70.5416   -8.1977 C.ar    1  UNL1        0.3323
     17 N          17.4333   70.5578   -9.3920 N.ar    1  UNL1       -0.2743
     18 C          18.7761   70.6387   -9.4594 C.ar    1  UNL1        0.2626
     19 C          19.5290   70.7114   -8.2619 C.ar    1  UNL1        0.0795
     20 C          18.8809   70.6976   -7.0777 C.ar    1  UNL1        0.0869
     21 O          15.6006   70.4687   -8.1528 O.2     1  UNL1       -0.2464
     22 O          19.3391   70.6486  -10.5399 O.2     1  UNL1       -0.2670
     23 H          16.9105   70.5080  -10.2081 H       1  UNL1        0.1734
     24 O          20.3283   70.7915   -0.7106 O.3     1  UNL1       -0.2703
     25 P          21.6594   70.9965    0.1703 P.3     1  UNL1        0.2208
     26 O          21.7668   69.9046    1.1630 O.2     1  UNL1       -0.5170
     27 O          22.9495   70.9734   -0.7937 O.3     1  UNL1       -0.4371
     28 O          21.5866   72.4116    0.9334 O.3     1  UNL1       -0.2858
     29 C          21.6855   72.1349    2.3311 C.3     1  UNL1        0.2704
     30 C          21.2906   73.3806    3.1258 C.3     1  UNL1        0.1967
     31 C          22.2184   74.5355    2.7362 C.3     1  UNL1        0.1715
     32 C          23.6707   74.0798    2.9169 C.3     1  UNL1        0.1694
     33 C          23.8856   72.7811    2.1357 C.3     1  UNL1        0.1761
     34 O          19.9378   73.7299    2.8274 O.3     1  UNL1       -0.3775
     35 O          21.9588   75.6636    3.5743 O.3     1  UNL1       -0.3794
     36 O          23.9329   73.8580    4.3032 O.3     1  UNL1       -0.3794
     37 O          23.0254   71.7639    2.6467 O.3     1  UNL1       -0.3258
     38 H          19.3918   72.9734    3.0814 H       1  UNL1        0.2106
     39 H          21.0346   75.9073    3.4374 H       1  UNL1        0.2105
     40 H          23.7797   74.6982    4.7549 H       1  UNL1        0.2105
     41 C          25.3424   72.3354    2.2814 C.3     1  UNL1        0.1693
     42 O          25.4471   70.9443    1.9735 O.3     1  UNL1       -0.3794
     43 H          26.3783   70.7042    2.0764 H       1  UNL1        0.2105
@<TRIPOS>BOND
     1    15    16   ar
     2    15    20   ar
     3    15     6    1
     4    16    17   ar
     5    16    21    2
     6    17    18   ar
     7    17    23    1
     8    18    19   ar
     9    18    22    2
    10    19    20   ar
    11     6     7    1
    12     6    11    1
    13     7     8    1
    14     7     9    1
    15     8    13    1
    16     9    10    1
    17     9    12    1
    18    10    11    1
    19    10     5    1
    20    12    14    1
    21     5     4    1
    22     4     1    1
    23     1     2    2
    24     1     3    1
    25     1    24    1
    26    24    25    1
    27    25    26    2
    28    25    27    1
    29    25    28    1
    30    28    29    1
    31    29    30    1
    32    29    37    1
    33    30    31    1
    34    30    34    1
    35    31    32    1
    36    31    35    1
    37    32    33    1
    38    32    36    1
    39    33    41    1
    40    33    37    1
    41    41    42    1
    42    34    38    1
    43    35    39    1
    44    36    40    1
    45    42    43    1
@<TRIPOS>MOLECULE
GDU
 43 45 0 0 0
SMALL
GASTEIGER

@<TRIPOS>ATOM
      1 P          20.6993   71.1083   -3.1421 P.3     1  UNL1        0.2189
      2 O          21.1644   71.3106   -4.5322 O.2     1  UNL1       -0.5170
      3 O          20.2734   72.5255   -2.5072 O.3     1  UNL1       -0.4371
      4 O          19.4332   70.1164   -3.1384 O.3     1  UNL1       -0.3112
      5 C          18.3368   70.8471   -2.5866 C.3     1  UNL1        0.1811
      6 C          16.8483   70.5474   -5.8458 C.3     1  UNL1        0.2383
      7 C          16.7896   69.1142   -5.2579 C.3     1  UNL1        0.1895
      8 O          15.6549   68.4037   -5.7587 O.3     1  UNL1       -0.3779
      9 C          16.6422   69.3918   -3.7392 C.3     1  UNL1        0.1713
     10 C          17.1645   70.8305   -3.5693 C.3     1  UNL1        0.1764
     11 O          17.6037   71.2847   -4.8612 O.3     1  UNL1       -0.3308
     12 O          15.2717   69.3002   -3.3453 O.3     1  UNL1       -0.3794
     13 H          15.6769   67.5241   -5.3567 H       1  UNL1        0.2106
     14 H          14.9870   68.3950   -3.5304 H       1  UNL1        0.2105
     15 N          17.5408   70.5502   -7.1354 N.ar    1  UNL1       -0.2551
     16 C          16.8279   70.5235   -8.2753 C.ar    1  UNL1        0.3323
     17 N          17.4400   70.5290   -9.4741 N.ar    1  UNL1       -0.2743
     18 C          18.7845   70.5516   -9.5510 C.ar    1  UNL1        0.2626
     19 C          19.5486   70.5741   -8.3585 C.ar    1  UNL1        0.0795
     20 C          18.9092   70.5723   -7.1695 C.ar    1  UNL1        0.0869
     21 O          15.6143   70.5034   -8.2218 O.2     1  UNL1       -0.2464
     22 O          19.3396   70.5518  -10.6356 O.2     1  UNL1       -0.2670
     23 H          16.9096   70.5138  -10.2866 H       1  UNL1        0.1734
     24 O          21.8886   70.4658   -2.2674 O.3     1  UNL1       -0.2703
     25 P          23.0465   71.5788   -2.1652 P.3     1  UNL1        0.2208
     26 O          24.3287   71.0000   -2.6235 O.2     1  UNL1       -0.5170
     27 O          22.6640   72.8376   -3.0943 O.3     1  UNL1       -0.4371
     28 O          23.1915   72.0651   -0.6379 O.3     1  UNL1       -0.2858
     29 C          23.2820   70.8879    0.1656 C.3     1  UNL1        0.2704
     30 C          22.0728   70.8147    1.0993 C.3     1  UNL1        0.1967
     31 C          22.0450   72.0688    1.9784 C.3     1  UNL1        0.1715
     32 C          23.4018   72.2070    2.6780 C.3     1  UNL1        0.1694
     33 C          24.5109   72.1766    1.6235 C.3     1  UNL1        0.1761
     34 O          20.8740   70.7442    0.3253 O.3     1  UNL1       -0.3775
     35 O          21.0087   71.9476    2.9551 O.3     1  UNL1       -0.3794
     36 O          23.5786   71.1268    3.5956 O.3     1  UNL1       -0.3794
     37 O          24.4835   70.9289    0.9319 O.3     1  UNL1       -0.3258
     38 H          20.9381   69.9459   -0.2164 H       1  UNL1        0.2106
     39 H          20.1784   71.8513    2.4717 H       1  UNL1        0.2105
     40 H          22.8570   71.1822    4.2355 H       1  UNL1        0.2105
     41 C          25.8685   72.3485    2.3086 C.3     1  UNL1        0.1693
     42 O          26.4693   71.0667    2.5016 O.3     1  UNL1       -0.3794
     43 H          27.3208   71.2190    2.9341 H       1  UNL1        0.2105
@<TRIPOS>BOND
     1    15    16   ar
     2    15    20   ar
     3    15     6    1
     4    16    17   ar
     5    16    21    2
     6    17    18   ar
     7    17    23    1
     8    18    19   ar
     9    18    22    2
    10    19    20   ar
    11     6     7    1
    12     6    11    1
    13     7     8    1
    14     7     9    1
    15     8    13    1
    16     9    10    1
    17     9    12    1
    18    10    11    1
    19    10     5    1
    20    12    14    1
    21     5     4    1
    22     4     1    1
    23     1     2    2
    24     1     3    1
    25     1    24    1
    26    24    25    1
    27    25    26    2
    28    25    27    1
    29    25    28    1
    30    28    29    1
    31    29    30    1
    32    29    37    1
    33    30    31    1
    34    30    34    1
    35    31    32    1
    36    31    35    1
    37    32    33    1
    38    32    36    1
    39    33    41    1
    40    33    37    1
    41    41    42    1
    42    34    38    1
    43    35    39    1
    44    36    40    1
    45    42    43    1
@<TRIPOS>MOLECULE
GDU
 43 45 0 0 0
SMALL
GASTEIGER

@<TRIPOS>ATOM
      1 P          20.9585   70.8963   -3.3837 P.3     1  UNL1        0.2189
      2 O          21.8359   70.7819   -2.1977 O.2     1  UNL1       -0.5170
      3 O          20.4778   69.4285   -3.8391 O.3     1  UNL1       -0.4371
      4 O          19.6739   71.7919   -3.0169 O.3     1  UNL1       -0.3112
      5 C          18.6895   70.9046   -2.4839 C.3     1  UNL1        0.1811
      6 C          17.0255   70.6100   -5.6575 C.3     1  UNL1        0.2383
      7 C          17.0019   69.1753   -5.0711 C.3     1  UNL1        0.1895
      8 O          15.8429   68.4636   -5.5110 O.3     1  UNL1       -0.3779
      9 C          16.9373   69.4487   -3.5459 C.3     1  UNL1        0.1713
     10 C          17.4652   70.8881   -3.4010 C.3     1  UNL1        0.1764
     11 O          17.8321   71.3464   -4.7138 O.3     1  UNL1       -0.3308
     12 O          15.5906   69.3531   -3.0778 O.3     1  UNL1       -0.3794
     13 H          15.8887   67.5830   -5.1131 H       1  UNL1        0.2106
     14 H          15.2980   68.4477   -3.2495 H       1  UNL1        0.2105
     15 N          17.6464   70.6177   -6.9831 N.ar    1  UNL1       -0.2551
     16 C          16.8784   70.4937   -8.0799 C.ar    1  UNL1        0.3323
     17 N          17.4239   70.5012   -9.3105 N.ar    1  UNL1       -0.2743
     18 C          18.7565   70.6239   -9.4628 C.ar    1  UNL1        0.2626
     19 C          19.5785   70.7496   -8.3162 C.ar    1  UNL1        0.0795
     20 C          19.0051   70.7433   -7.0941 C.ar    1  UNL1        0.0869
     21 O          15.6747   70.3826   -7.9583 O.2     1  UNL1       -0.2464
     22 O          19.2516   70.6261  -10.5761 O.2     1  UNL1       -0.2670
     23 H          16.8540   70.4149  -10.0913 H       1  UNL1        0.1734
     24 O          21.7723   71.5904   -4.5872 O.3     1  UNL1       -0.2703
     25 P          22.6544   72.7683   -3.9356 P.3     1  UNL1        0.2208
     26 O          22.0499   73.1839   -2.6508 O.2     1  UNL1       -0.5170
     27 O          24.1522   72.2360   -3.6761 O.3     1  UNL1       -0.4371
     28 O          22.6993   74.0249   -4.9401 O.3     1  UNL1       -0.2858
     29 C          21.6271   73.8531   -5.8678 C.3     1  UNL1        0.2704
     30 C          22.1959   73.6833   -7.2774 C.3     1  UNL1        0.1967
     31 C          23.0255   74.9210   -7.6328 C.3     1  UNL1        0.1715
     32 C          22.1587   76.1681   -7.4249 C.3     1  UNL1        0.1694
     33 C          21.5941   76.1504   -6.0023 C.3     1  UNL1        0.1761
     34 O          23.0249   72.5206   -7.3222 O.3     1  UNL1       -0.3775
     35 O          23.4414   74.8445   -8.9980 O.3     1  UNL1       -0.3794
     36 O          21.0874   76.1683   -8.3695 O.3     1  UNL1       -0.3794
     37 O          20.7753   74.9955   -5.8238 O.3     1  UNL1       -0.3258
     38 H          22.4644   71.7691   -7.0855 H       1  UNL1        0.2106
     39 H          23.9714   74.0421   -9.0845 H       1  UNL1        0.2105
     40 H          21.4889   76.1737   -9.2481 H       1  UNL1        0.2105
     41 C          20.7545   77.4091   -5.7729 C.3     1  UNL1        0.1693
     42 O          21.2661   78.4747   -6.5754 O.3     1  UNL1       -0.3794
     43 H          20.7104   79.2470   -6.4025 H       1  UNL1        0.2105
@<TRIPOS>BOND
     1    15    16   ar
     2    15    20   ar
     3    15     6    1
     4    16    17   ar
     5    16    21    2
     6    17    18   ar
     7    17    23    1
     8    18    19   ar
     9    18    22    2
    10    19    20   ar
    11     6     7    1
    12     6    11    1
    13     7     8    1
    14     7     9    1
    15     8    13    1
    16     9    10    1
    17     9    12    1
    18    10    11    1
    19    10     5    1
    20    12    14    1
    21     5     4    1
    22     4     1    1
    23     1     2    2
    24     1     3    1
    25     1    24    1
    26    24    25    1
    27    25    26    2
    28    25    27    1
    29    25    28    1
    30    28    29    1
    31    29    30    1
    32    29    37    1
    33    30    31    1
    34    30    34    1
    35    31    32    1
    36    31    35    1
    37    32    33    1
    38    32    36    1
    39    33    41    1
    40    33    37    1
    41    41    42    1
    42    34    38    1
    43    35    39    1
    44    36    40    1
    45    42    43    1
@<TRIPOS>MOLECULE
GDU
 43 45 0 0 0
SMALL
GASTEIGER

@<TRIPOS>ATOM
      1 P          20.6302   71.4956   -1.3463 P.3     1  UNL1        0.2189
      2 O          21.0093   72.9054   -1.1044 O.2     1  UNL1       -0.5170
      3 O          20.9276   70.6256   -0.0244 O.3     1  UNL1       -0.4371
      4 O          19.0636   71.4141   -1.7012 O.3     1  UNL1       -0.3112
      5 C          18.8867   70.2655   -2.5318 C.3     1  UNL1        0.1811
      6 C          17.1292   70.4012   -5.6655 C.3     1  UNL1        0.2383
      7 C          16.9584   68.9368   -5.1867 C.3     1  UNL1        0.1895
      8 O          15.7174   68.3929   -5.6421 O.3     1  UNL1       -0.3779
      9 C          16.9592   69.0972   -3.6441 C.3     1  UNL1        0.1713
     10 C          17.6480   70.4543   -3.4093 C.3     1  UNL1        0.1764
     11 O          18.0343   70.9695   -4.6952 O.3     1  UNL1       -0.3308
     12 O          15.6211   69.1143   -3.1430 O.3     1  UNL1       -0.3794
     13 H          15.6733   67.4845   -5.3122 H       1  UNL1        0.2106
     14 H          15.2252   68.2626   -3.3722 H       1  UNL1        0.2105
     15 N          17.7171   70.4428   -7.0055 N.ar    1  UNL1       -0.2551
     16 C          16.9156   70.4566   -8.0852 C.ar    1  UNL1        0.3323
     17 N          17.4306   70.4983   -9.3281 N.ar    1  UNL1       -0.2743
     18 C          18.7649   70.5169   -9.5111 C.ar    1  UNL1        0.2626
     19 C          19.6214   70.4968   -8.3832 C.ar    1  UNL1        0.0795
     20 C          19.0786   70.4593   -7.1478 C.ar    1  UNL1        0.0869
     21 O          15.7100   70.4407   -7.9359 O.2     1  UNL1       -0.2464
     22 O          19.2320   70.5498  -10.6360 O.2     1  UNL1       -0.2670
     23 H          16.8372   70.5122  -10.0959 H       1  UNL1        0.1734
     24 O          21.4913   70.9128   -2.5756 O.3     1  UNL1       -0.2703
     25 P          22.7600   71.8857   -2.7594 P.3     1  UNL1        0.2208
     26 O          23.0857   72.5214   -1.4637 O.2     1  UNL1       -0.5170
     27 O          24.0245   71.0278   -3.2686 O.3     1  UNL1       -0.4371
     28 O          22.4129   73.0229   -3.8440 O.3     1  UNL1       -0.2858
     29 C          21.4735   72.4531   -4.7565 C.3     1  UNL1        0.2704
     30 C          21.9069   72.7598   -6.1909 C.3     1  UNL1        0.1967
     31 C          21.9858   74.2786   -6.3740 C.3     1  UNL1        0.1715
     32 C          20.6467   74.8934   -5.9516 C.3     1  UNL1        0.1694
     33 C          20.3097   74.4260   -4.5334 C.3     1  UNL1        0.1761
     34 O          23.1886   72.1792   -6.4382 O.3     1  UNL1       -0.3775
     35 O          22.2456   74.5840   -7.7458 O.3     1  UNL1       -0.3794
     36 O          19.6224   74.4737   -6.8542 O.3     1  UNL1       -0.3794
     37 O          20.1819   73.0051   -4.5126 O.3     1  UNL1       -0.3258
     38 H          23.0936   71.2262   -6.3048 H       1  UNL1        0.2106
     39 H          23.0880   74.1690   -7.9702 H       1  UNL1        0.2105
     40 H          19.8789   74.7839   -7.7324 H       1  UNL1        0.2105
     41 C          18.9906   75.0618   -4.0887 C.3     1  UNL1        0.1693
     42 O          19.1324   76.4831   -4.0640 O.3     1  UNL1       -0.3794
     43 H          18.2813   76.8444   -3.7802 H       1  UNL1        0.2105
@<TRIPOS>BOND
     1    15    16   ar
     2    15    20   ar
     3    15     6    1
     4    16    17   ar
     5    16    21    2
     6    17    18   ar
     7    17    23    1
     8    18    19   ar
     9    18    22    2
    10    19    20   ar
    11     6     7    1
    12     6    11    1
    13     7     8    1
    14     7     9    1
    15     8    13    1
    16     9    10    1
    17     9    12    1
    18    10    11    1
    19    10     5    1
    20    12    14    1
    21     5     4    1
    22     4     1    1
    23     1     2    2
    24     1     3    1
    25     1    24    1
    26    24    25    1
    27    25    26    2
    28    25    27    1
    29    25    28    1
    30    28    29    1
    31    29    30    1
    32    29    37    1
    33    30    31    1
    34    30    34    1
    35    31    32    1
    36    31    35    1
    37    32    33    1
    38    32    36    1
    39    33    41    1
    40    33    37    1
    41    41    42    1
    42    34    38    1
    43    35    39    1
    44    36    40    1
    45    42    43    1
@<TRIPOS>MOLECULE
GDU
 43 45 0 0 0
SMALL
GASTEIGER

@<TRIPOS>ATOM
      1 P          22.2686   72.0260   -1.2470 P.3     1  UNL1        0.2189
      2 O          22.8545   73.3714   -1.4374 O.2     1  UNL1       -0.5170
      3 O          21.0487   72.1154   -0.1997 O.3     1  UNL1       -0.4371
      4 O          21.7266   71.4719   -2.6562 O.3     1  UNL1       -0.3112
      5 C          22.5881   71.9982   -3.6668 C.3     1  UNL1        0.1811
      6 C          19.7195   71.7303   -5.8179 C.3     1  UNL1        0.2383
      7 C          19.4191   72.9575   -4.9198 C.3     1  UNL1        0.1895
      8 O          18.6203   73.9162   -5.6169 O.3     1  UNL1       -0.3779
      9 C          20.8401   73.5156   -4.6465 C.3     1  UNL1        0.1713
     10 C          21.7709   72.3196   -4.9195 C.3     1  UNL1        0.1764
     11 O          20.9401   71.1967   -5.2620 O.3     1  UNL1       -0.3308
     12 O          21.1311   74.5974   -5.5336 O.3     1  UNL1       -0.3794
     13 H          18.4697   74.6509   -5.0058 H       1  UNL1        0.2106
     14 H          20.4799   75.2892   -5.3549 H       1  UNL1        0.2105
     15 N          18.6391   70.7466   -5.7290 N.ar    1  UNL1       -0.2551
     16 C          17.8931   70.4755   -6.8145 C.ar    1  UNL1        0.3323
     17 N          16.8961   69.5728   -6.7605 N.ar    1  UNL1       -0.2743
     18 C          16.6222   68.9303   -5.6088 C.ar    1  UNL1        0.2626
     19 C          17.3960   69.2099   -4.4558 C.ar    1  UNL1        0.0795
     20 C          18.3927   70.1166   -4.5388 C.ar    1  UNL1        0.0869
     21 O          18.1287   71.0468   -7.8605 O.2     1  UNL1       -0.2464
     22 O          15.7168   68.1165   -5.5577 O.2     1  UNL1       -0.2670
     23 H          16.3706   69.3864   -7.5547 H       1  UNL1        0.1734
     24 O          23.3943   71.0278   -0.6735 O.3     1  UNL1       -0.2703
     25 P          23.1375   70.8951    0.9097 P.3     1  UNL1        0.2208
     26 O          21.8865   70.1410    1.1448 O.2     1  UNL1       -0.5170
     27 O          24.3707   70.1132    1.5894 O.3     1  UNL1       -0.4371
     28 O          23.0109   72.3623    1.5587 O.3     1  UNL1       -0.2858
     29 C          22.9248   72.1844    2.9732 C.3     1  UNL1        0.2704
     30 C          21.6168   72.7907    3.4839 C.3     1  UNL1        0.1967
     31 C          21.5827   74.2789    3.1230 C.3     1  UNL1        0.1715
     32 C          22.8594   74.9412    3.6532 C.3     1  UNL1        0.1694
     33 C          24.0741   74.1723    3.1275 C.3     1  UNL1        0.1761
     34 O          20.5100   72.1234    2.8748 O.3     1  UNL1       -0.3775
     35 O          20.4377   74.8916    3.7198 O.3     1  UNL1       -0.3794
     36 O          22.8532   74.9158    5.0812 O.3     1  UNL1       -0.3794
     37 O          24.0330   72.8264    3.5995 O.3     1  UNL1       -0.3258
     38 H          20.5757   71.1910    3.1224 H       1  UNL1        0.2106
     39 H          19.6618   74.4373    3.3679 H       1  UNL1        0.2105
     40 H          22.0706   75.4052    5.3665 H       1  UNL1        0.2105
     41 C          25.3556   74.8460    3.6233 C.3     1  UNL1        0.1693
     42 O          26.2414   75.0520    2.5215 O.3     1  UNL1       -0.3794
     43 H          27.0341   75.4781    2.8755 H       1  UNL1        0.2105
@<TRIPOS>BOND
     1    15    16   ar
     2    15    20   ar
     3    15     6    1
     4    16    17   ar
     5    16    21    2
     6    17    18   ar
     7    17    23    1
     8    18    19   ar
     9    18    22    2
    10    19    20   ar
    11     6     7    1
    12     6    11    1
    13     7     8    1
    14     7     9    1
    15     8    13    1
    16     9    10    1
    17     9    12    1
    18    10    11    1
    19    10     5    1
    20    12    14    1
    21     5     4    1
    22     4     1    1
    23     1     2    2
    24     1     3    1
    25     1    24    1
    26    24    25    1
    27    25    26    2
    28    25    27    1
    29    25    28    1
    30    28    29    1
    31    29    30    1
    32    29    37    1
    33    30    31    1
    34    30    34    1
    35    31    32    1
    36    31    35    1
    37    32    33    1
    38    32    36    1
    39    33    41    1
    40    33    37    1
    41    41    42    1
    42    34    38    1
    43    35    39    1
    44    36    40    1
    45    42    43    1
@<TRIPOS>MOLECULE
GDU
 43 45 0 0 0
SMALL
GASTEIGER

@<TRIPOS>ATOM
      1 P          20.5699   71.3828   -2.1854 P.3     1  UNL1        0.2189
      2 O          21.8923   71.1160   -2.7932 O.2     1  UNL1       -0.5170
      3 O          20.4482   72.9490   -1.8315 O.3     1  UNL1       -0.4371
      4 O          19.4101   70.9754   -3.2225 O.3     1  UNL1       -0.3112
      5 C          18.1651   71.2762   -2.5901 C.3     1  UNL1        0.1811
      6 C          16.7792   70.5589   -5.8293 C.3     1  UNL1        0.2383
      7 C          16.8844   69.1763   -5.1362 C.3     1  UNL1        0.1895
      8 O          15.8526   68.2980   -5.5914 O.3     1  UNL1       -0.3779
      9 C          16.6788   69.5446   -3.6438 C.3     1  UNL1        0.1713
     10 C          17.0202   71.0448   -3.5780 C.3     1  UNL1        0.1764
     11 O          17.4231   71.4530   -4.8968 O.3     1  UNL1       -0.3308
     12 O          15.3229   69.3157   -3.2549 O.3     1  UNL1       -0.3794
     13 H          15.9740   67.4595   -5.1244 H       1  UNL1        0.2106
     14 H          15.1530   68.3715   -3.3740 H       1  UNL1        0.2105
     15 N          17.4880   70.5515   -7.1101 N.ar    1  UNL1       -0.2551
     16 C          16.7893   70.5486   -8.2590 C.ar    1  UNL1        0.3323
     17 N          17.4166   70.5454   -9.4499 N.ar    1  UNL1       -0.2743
     18 C          18.7622   70.5349   -9.5096 C.ar    1  UNL1        0.2626
     19 C          19.5113   70.5320   -8.3075 C.ar    1  UNL1        0.0795
     20 C          18.8569   70.5397   -7.1267 C.ar    1  UNL1        0.0869
     21 O          15.5750   70.5585   -8.2210 O.2     1  UNL1       -0.2464
     22 O          19.3309   70.5272  -10.5871 O.2     1  UNL1       -0.2670
     23 H          16.8964   70.5478  -10.2691 H       1  UNL1        0.1734
     24 O          20.4150   70.5159   -0.8374 O.3     1  UNL1       -0.2703
     25 P          21.3534   71.2072    0.2723 P.3     1  UNL1        0.2208
     26 O          21.8411   70.1776    1.2163 O.2     1  UNL1       -0.5170
     27 O          22.6095   71.9105   -0.4499 O.3     1  UNL1       -0.4371
     28 O          20.5081   72.3161    1.0760 O.3     1  UNL1       -0.2858
     29 C          21.4433   73.2822    1.5576 C.3     1  UNL1        0.2704
     30 C          21.3401   73.3755    3.0807 C.3     1  UNL1        0.1967
     31 C          19.9098   73.7714    3.4602 C.3     1  UNL1        0.1715
     32 C          19.5377   75.0503    2.7016 C.3     1  UNL1        0.1694
     33 C          19.7760   74.8290    1.2059 C.3     1  UNL1        0.1761
     34 O          21.6576   72.1089    3.6605 O.3     1  UNL1       -0.3775
     35 O          19.8341   74.0060    4.8680 O.3     1  UNL1       -0.3794
     36 O          20.3466   76.1327    3.1642 O.3     1  UNL1       -0.3794
     37 O          21.1562   74.5510    0.9743 O.3     1  UNL1       -0.3258
     38 H          22.5614   71.8970    3.3901 H       1  UNL1        0.2106
     39 H          20.0869   73.1819    5.3030 H       1  UNL1        0.2105
     40 H          20.1686   76.2315    4.1086 H       1  UNL1        0.2105
     41 C          19.3749   76.0890    0.4354 C.3     1  UNL1        0.1693
     42 O          19.5807   75.8772   -0.9624 O.3     1  UNL1       -0.3794
     43 H          19.3159   76.6921   -1.4109 H       1  UNL1        0.2105
@<TRIPOS>BOND
     1    15    16   ar
     2    15    20   ar
     3    15     6    1
     4    16    17   ar
     5    16    21    2
     6    17    18   ar
     7    17    23    1
     8    18    19   ar
     9    18    22    2
    10    19    20   ar
    11     6     7    1
    12     6    11    1
    13     7     8    1
    14     7     9    1
    15     8    13    1
    16     9    10    1
    17     9    12    1
    18    10    11    1
    19    10     5    1
    20    12    14    1
    21     5     4    1
    22     4     1    1
    23     1     2    2
    24     1     3    1
    25     1    24    1
    26    24    25    1
    27    25    26    2
    28    25    27    1
    29    25    28    1
    30    28    29    1
    31    29    30    1
    32    29    37    1
    33    30    31    1
    34    30    34    1
    35    31    32    1
    36    31    35    1
    37    32    33    1
    38    32    36    1
    39    33    41    1
    40    33    37    1
    41    41    42    1
    42    34    38    1
    43    35    39    1
    44    36    40    1
    45    42    43    1
@<TRIPOS>MOLECULE
GDU
 43 45 0 0 0
SMALL
GASTEIGER

@<TRIPOS>ATOM
      1 P          20.4517   71.0541   -1.5825 P.3     1  UNL1        0.2189
      2 O          21.4238   70.4442   -2.5167 O.2     1  UNL1       -0.5170
      3 O          20.5364   72.6584   -1.6919 O.3     1  UNL1       -0.4371
      4 O          18.9658   70.5681   -1.9607 O.3     1  UNL1       -0.3112
      5 C          18.2842   71.7021   -2.4993 C.3     1  UNL1        0.1811
      6 C          16.9495   70.5770   -5.6426 C.3     1  UNL1        0.2383
      7 C          17.2927   69.2737   -4.8768 C.3     1  UNL1        0.1895
      8 O          16.4041   68.2165   -5.2454 O.3     1  UNL1       -0.3779
      9 C          17.0688   69.6953   -3.4012 C.3     1  UNL1        0.1713
     10 C          17.1666   71.2319   -3.4320 C.3     1  UNL1        0.1764
     11 O          17.4650   71.6174   -4.7850 O.3     1  UNL1       -0.3308
     12 O          15.7776   69.2784   -2.9530 O.3     1  UNL1       -0.3794
     13 H          16.6704   67.4382   -4.7364 H       1  UNL1        0.2106
     14 H          15.7584   68.3137   -3.0126 H       1  UNL1        0.2105
     15 N          17.6175   70.6038   -6.9448 N.ar    1  UNL1       -0.2551
     16 C          16.8876   70.5144   -8.0707 C.ar    1  UNL1        0.3323
     17 N          17.4768   70.5402   -9.2806 N.ar    1  UNL1       -0.2743
     18 C          18.8156   70.6467   -9.3829 C.ar    1  UNL1        0.2626
     19 C          19.5977   70.7359   -8.2053 C.ar    1  UNL1        0.0795
     20 C          18.9809   70.7120   -7.0047 C.ar    1  UNL1        0.0869
     21 O          15.6789   70.4184   -7.9943 O.2     1  UNL1       -0.2464
     22 O          19.3502   70.6653  -10.4776 O.2     1  UNL1       -0.2670
     23 H          16.9341   70.4788  -10.0828 H       1  UNL1        0.1734
     24 O          20.7989   70.6011   -0.0770 O.3     1  UNL1       -0.2703
     25 P          22.2173   71.2645    0.2945 P.3     1  UNL1        0.2208
     26 O          22.9655   70.3577    1.1929 O.2     1  UNL1       -0.5170
     27 O          23.0663   71.5050   -1.0529 O.3     1  UNL1       -0.4371
     28 O          21.9749   72.6736    1.0333 O.3     1  UNL1       -0.2858
     29 C          20.9235   72.4712    1.9784 C.3     1  UNL1        0.2704
     30 C          19.9618   73.6596    1.9325 C.3     1  UNL1        0.1967
     31 C          20.7374   74.9412    2.2525 C.3     1  UNL1        0.1715
     32 C          21.4739   74.7491    3.5830 C.3     1  UNL1        0.1694
     33 C          22.3230   73.4780    3.5029 C.3     1  UNL1        0.1761
     34 O          19.3864   73.7595    0.6287 O.3     1  UNL1       -0.3775
     35 O          19.8283   76.0388    2.3583 O.3     1  UNL1       -0.3794
     36 O          20.5233   74.6284    4.6422 O.3     1  UNL1       -0.3794
     37 O          21.4791   72.3482    3.2856 O.3     1  UNL1       -0.3258
     38 H          18.9154   72.9306    0.4673 H       1  UNL1        0.2106
     39 H          19.3807   76.1146    1.5062 H       1  UNL1        0.2105
     40 H          20.0090   75.4462    4.6513 H       1  UNL1        0.2105
     41 C          23.0895   73.2953    4.8148 C.3     1  UNL1        0.1693
     42 O          22.1990   72.8135    5.8227 O.3     1  UNL1       -0.3794
     43 H          22.7200   72.7114    6.6310 H       1  UNL1        0.2105
@<TRIPOS>BOND
     1    15    16   ar
     2    15    20   ar
     3    15     6    1
     4    16    17   ar
     5    16    21    2
     6    17    18   ar
     7    17    23    1
     8    18    19   ar
     9    18    22    2
    10    19    20   ar
    11     6     7    1
    12     6    11    1
    13     7     8    1
    14     7     9    1
    15     8    13    1
    16     9    10    1
    17     9    12    1
    18    10    11    1
    19    10     5    1
    20    12    14    1
    21     5     4    1
    22     4     1    1
    23     1     2    2
    24     1     3    1
    25     1    24    1
    26    24    25    1
    27    25    26    2
    28    25    27    1
    29    25    28    1
    30    28    29    1
    31    29    30    1
    32    29    37    1
    33    30    31    1
    34    30    34    1
    35    31    32    1
    36    31    35    1
    37    32    33    1
    38    32    36    1
    39    33    41    1
    40    33    37    1
    41    41    42    1
    42    34    38    1
    43    35    39    1
    44    36    40    1
    45    42    43    1
@<TRIPOS>MOLECULE
GDU
 43 45 0 0 0
SMALL
GASTEIGER

@<TRIPOS>ATOM
      1 P          20.7575   71.3773   -1.0235 P.3     1  UNL1        0.2189
      2 O          21.1344   72.7986   -0.8582 O.2     1  UNL1       -0.5170
      3 O          20.9482   70.6053    0.3768 O.3     1  UNL1       -0.4371
      4 O          19.2199   71.2796   -1.4851 O.3     1  UNL1       -0.3112
      5 C          19.1632   70.3103   -2.5328 C.3     1  UNL1        0.1811
      6 C          17.3038   70.4857   -5.6051 C.3     1  UNL1        0.2383
      7 C          17.1050   69.0294   -5.1126 C.3     1  UNL1        0.1895
      8 O          15.8331   68.5217   -5.5222 O.3     1  UNL1       -0.3779
      9 C          17.1638   69.1966   -3.5719 C.3     1  UNL1        0.1713
     10 C          17.9013   70.5331   -3.3683 C.3     1  UNL1        0.1764
     11 O          18.2586   71.0304   -4.6696 O.3     1  UNL1       -0.3308
     12 O          15.8449   69.2570   -3.0252 O.3     1  UNL1       -0.3794
     13 H          15.7727   67.6166   -5.1859 H       1  UNL1        0.2106
     14 H          15.4156   68.4168   -3.2360 H       1  UNL1        0.2105
     15 N          17.8461   70.5033   -6.9646 N.ar    1  UNL1       -0.2551
     16 C          17.0109   70.4403   -8.0167 C.ar    1  UNL1        0.3323
     17 N          17.4835   70.4583   -9.2769 N.ar    1  UNL1       -0.2743
     18 C          18.8090   70.5302   -9.5050 C.ar    1  UNL1        0.2626
     19 C          19.7011   70.5913   -8.4065 C.ar    1  UNL1        0.0795
     20 C          19.2001   70.5759   -7.1530 C.ar    1  UNL1        0.0869
     21 O          15.8127   70.3757   -7.8266 O.2     1  UNL1       -0.2464
     22 O          19.2381   70.5417  -10.6453 O.2     1  UNL1       -0.2670
     23 H          16.8660   70.4164  -10.0243 H       1  UNL1        0.1734
     24 O          21.6986   70.7000   -2.1406 O.3     1  UNL1       -0.2703
     25 P          23.0797   71.5261   -2.1506 P.3     1  UNL1        0.2208
     26 O          23.5419   71.7307   -0.7601 O.2     1  UNL1       -0.5170
     27 O          24.1933   70.6995   -2.9697 O.3     1  UNL1       -0.4371
     28 O          22.8470   72.9541   -2.8554 O.3     1  UNL1       -0.2858
     29 C          23.9947   73.2085   -3.6664 C.3     1  UNL1        0.2704
     30 C          24.3872   74.6818   -3.5453 C.3     1  UNL1        0.1967
     31 C          23.2068   75.5506   -3.9907 C.3     1  UNL1        0.1715
     32 C          22.7711   75.1046   -5.3911 C.3     1  UNL1        0.1694
     33 C          22.4990   73.5984   -5.3716 C.3     1  UNL1        0.1761
     34 O          24.7168   74.9793   -2.1874 O.3     1  UNL1       -0.3775
     35 O          23.6059   76.9225   -4.0237 O.3     1  UNL1       -0.3794
     36 O          23.8078   75.3956   -6.3294 O.3     1  UNL1       -0.3794
     37 O          23.6928   72.8981   -5.0248 O.3     1  UNL1       -0.3258
     38 H          25.4577   74.4060   -1.9481 H       1  UNL1        0.2106
     39 H          23.8821   77.1552   -3.1282 H       1  UNL1        0.2105
     40 H          23.9487   76.3510   -6.3034 H       1  UNL1        0.2105
     41 C          22.0300   73.1486   -6.7571 C.3     1  UNL1        0.1693
     42 O          23.1219   72.5504   -7.4577 O.3     1  UNL1       -0.3794
     43 H          22.7851   72.2809   -8.3232 H       1  UNL1        0.2105
@<TRIPOS>BOND
     1    15    16   ar
     2    15    20   ar
     3    15     6    1
     4    16    17   ar
     5    16    21    2
     6    17    18   ar
     7    17    23    1
     8    18    19   ar
     9    18    22    2
    10    19    20   ar
    11     6     7    1
    12     6    11    1
    13     7     8    1
    14     7     9    1
    15     8    13    1
    16     9    10    1
    17     9    12    1
    18    10    11    1
    19    10     5    1
    20    12    14    1
    21     5     4    1
    22     4     1    1
    23     1     2    2
    24     1     3    1
    25     1    24    1
    26    24    25    1
    27    25    26    2
    28    25    27    1
    29    25    28    1
    30    28    29    1
    31    29    30    1
    32    29    37    1
    33    30    31    1
    34    30    34    1
    35    31    32    1
    36    31    35    1
    37    32    33    1
    38    32    36    1
    39    33    41    1
    40    33    37    1
    41    41    42    1
    42    34    38    1
    43    35    39    1
    44    36    40    1
    45    42    43    1
@<TRIPOS>MOLECULE
GDU
 43 45 0 0 0
SMALL
GASTEIGER

@<TRIPOS>ATOM
      1 P          23.5000   72.0978   -3.3024 P.3     1  UNL1        0.2189
      2 O          24.2842   72.9301   -4.2414 O.2     1  UNL1       -0.5170
      3 O          24.3085   70.7422   -2.9833 O.3     1  UNL1       -0.4371
      4 O          23.2576   72.9121   -1.9367 O.3     1  UNL1       -0.3112
      5 C          21.8900   72.7148   -1.5745 C.3     1  UNL1        0.1811
      6 C          23.1974   72.0172    1.7014 C.3     1  UNL1        0.2383
      7 C          22.4884   73.3878    1.8491 C.3     1  UNL1        0.1895
      8 O          21.9691   73.5534    3.1705 O.3     1  UNL1       -0.3779
      9 C          21.3395   73.2726    0.8137 C.3     1  UNL1        0.1713
     10 C          21.8123   72.1669   -0.1484 C.3     1  UNL1        0.1764
     11 O          23.1177   71.7476    0.2856 O.3     1  UNL1       -0.3308
     12 O          20.1213   72.8963    1.4590 O.3     1  UNL1       -0.3794
     13 H          21.5431   74.4215    3.1959 H       1  UNL1        0.2106
     14 H          19.9099   73.5983    2.0892 H       1  UNL1        0.2105
     15 N          24.5937   72.1073    2.1315 N.ar    1  UNL1       -0.2551
     16 C          25.3328   70.9888    2.2358 C.ar    1  UNL1        0.3323
     17 N          26.6200   71.0444    2.6256 N.ar    1  UNL1       -0.2743
     18 C          27.1883   72.2274    2.9285 C.ar    1  UNL1        0.2626
     19 C          26.4201   73.4132    2.8288 C.ar    1  UNL1        0.0795
     20 C          25.1327   73.3294    2.4313 C.ar    1  UNL1        0.0869
     21 O          24.8341   69.9144    1.9654 O.2     1  UNL1       -0.2464
     22 O          28.3519   72.2782    3.2861 O.2     1  UNL1       -0.2670
     23 H          27.1399   70.2275    2.6912 H       1  UNL1        0.1734
     24 O          22.0811   71.7304   -3.9687 O.3     1  UNL1       -0.2703
     25 P          21.9077   72.6845   -5.2531 P.3     1  UNL1        0.2208
     26 O          22.0623   74.0975   -4.8422 O.2     1  UNL1       -0.5170
     27 O          23.0306   72.3188   -6.3484 O.3     1  UNL1       -0.4371
     28 O          20.4464   72.4670   -5.8913 O.3     1  UNL1       -0.2858
     29 C          20.3950   71.1191   -6.3606 C.3     1  UNL1        0.2704
     30 C          19.8800   71.1006   -7.8006 C.3     1  UNL1        0.1967
     31 C          18.4889   71.7408   -7.8409 C.3     1  UNL1        0.1715
     32 C          17.5934   71.0317   -6.8187 C.3     1  UNL1        0.1694
     33 C          18.2815   71.0573   -5.4517 C.3     1  UNL1        0.1761
     34 O          20.7724   71.8383   -8.6376 O.3     1  UNL1       -0.3775
     35 O          17.9330   71.5991   -9.1498 O.3     1  UNL1       -0.3794
     36 O          17.3805   69.6796   -7.2266 O.3     1  UNL1       -0.3794
     37 O          19.5242   70.3599   -5.5252 O.3     1  UNL1       -0.3258
     38 H          21.6347   71.4053   -8.5760 H       1  UNL1        0.2106
     39 H          18.5329   72.0480   -9.7588 H       1  UNL1        0.2105
     40 H          16.9519   69.7125   -8.0918 H       1  UNL1        0.2105
     41 C          17.3799   70.3817   -4.4160 C.3     1  UNL1        0.1693
     42 O          16.0400   70.3363   -4.9095 O.3     1  UNL1       -0.3794
     43 H          15.5057   69.9038   -4.2293 H       1  UNL1        0.2105
@<TRIPOS>BOND
     1    15    16   ar
     2    15    20   ar
     3    15     6    1
     4    16    17   ar
     5    16    21    2
     6    17    18   ar
     7    17    23    1
     8    18    19   ar
     9    18    22    2
    10    19    20   ar
    11     6     7    1
    12     6    11    1
    13     7     8    1
    14     7     9    1
    15     8    13    1
    16     9    10    1
    17     9    12    1
    18    10    11    1
    19    10     5    1
    20    12    14    1
    21     5     4    1
    22     4     1    1
    23     1     2    2
    24     1     3    1
    25     1    24    1
    26    24    25    1
    27    25    26    2
    28    25    27    1
    29    25    28    1
    30    28    29    1
    31    29    30    1
    32    29    37    1
    33    30    31    1
    34    30    34    1
    35    31    32    1
    36    31    35    1
    37    32    33    1
    38    32    36    1
    39    33    41    1
    40    33    37    1
    41    41    42    1
    42    34    38    1
    43    35    39    1
    44    36    40    1
    45    42    43    1
@<TRIPOS>MOLECULE
GDU
 43 45 0 0 0
SMALL
GASTEIGER

@<TRIPOS>ATOM
      1 P          16.7644   69.5818   -2.5142 P.3     1  UNL1        0.2189
      2 O          18.2009   69.3519   -2.2438 O.2     1  UNL1       -0.5170
      3 O          16.4097   69.0712   -3.9996 O.3     1  UNL1       -0.4371
      4 O          15.8798   68.7717   -1.4428 O.3     1  UNL1       -0.3112
      5 C          15.0747   69.7335   -0.7592 C.3     1  UNL1        0.1811
      6 C          12.5875   68.0173    1.1891 C.3     1  UNL1        0.2383
      7 C          12.3645   69.5178    1.5081 C.3     1  UNL1        0.1895
      8 O          10.9890   69.7790    1.7961 O.3     1  UNL1       -0.3779
      9 C          12.7908   70.1988    0.1815 C.3     1  UNL1        0.1713
     10 C          13.6832   69.1499   -0.5077 C.3     1  UNL1        0.1764
     11 O          13.7800   68.0194    0.3759 O.3     1  UNL1       -0.3308
     12 O          11.6447   70.4942   -0.6192 O.3     1  UNL1       -0.3794
     13 H          10.9184   70.7251    1.9853 H       1  UNL1        0.2106
     14 H          11.0980   71.1079   -0.1101 H       1  UNL1        0.2105
     15 N          12.8030   67.2529    2.4188 N.ar    1  UNL1       -0.2551
     16 C          12.5921   65.9248    2.4240 C.ar    1  UNL1        0.3323
     17 N          12.7863   65.1982    3.5403 N.ar    1  UNL1       -0.2743
     18 C          13.1878   65.7952    4.6790 C.ar    1  UNL1        0.2626
     19 C          13.4083   67.1943    4.6899 C.ar    1  UNL1        0.0795
     20 C          13.2101   67.8985    3.5553 C.ar    1  UNL1        0.0869
     21 O          12.2303   65.3723    1.4043 O.2     1  UNL1       -0.2464
     22 O          13.3592   65.1390    5.6912 O.2     1  UNL1       -0.2670
     23 H          12.6334   64.2400    3.5249 H       1  UNL1        0.1734
     24 O          16.4425   71.1551   -2.3980 O.3     1  UNL1       -0.2703
     25 P          17.4772   71.9160   -3.3678 P.3     1  UNL1        0.2208
     26 O          17.0635   73.3285   -3.5190 O.2     1  UNL1       -0.5170
     27 O          18.9546   71.8554   -2.7292 O.3     1  UNL1       -0.4371
     28 O          17.4875   71.2014   -4.8098 O.3     1  UNL1       -0.2858
     29 C          17.6840   72.2299   -5.7811 C.3     1  UNL1        0.2704
     30 C          16.7258   72.0129   -6.9533 C.3     1  UNL1        0.1967
     31 C          16.9904   70.6336   -7.5649 C.3     1  UNL1        0.1715
     32 C          18.4797   70.5290   -7.9119 C.3     1  UNL1        0.1694
     33 C          19.3055   70.8568   -6.6654 C.3     1  UNL1        0.1761
     34 O          15.3768   72.0809   -6.4876 O.3     1  UNL1       -0.3775
     35 O          16.2066   70.4753   -8.7494 O.3     1  UNL1       -0.3794
     36 O          18.7933   71.4527   -8.9552 O.3     1  UNL1       -0.3794
     37 O          19.0318   72.1924   -6.2443 O.3     1  UNL1       -0.3258
     38 H          15.2576   72.9610   -6.1054 H       1  UNL1        0.2106
     39 H          15.2815   70.5601   -8.4863 H       1  UNL1        0.2105
     40 H          18.2476   71.2122   -9.7153 H       1  UNL1        0.2105
     41 C          20.7944   70.7218   -6.9921 C.3     1  UNL1        0.1693
     42 O          20.9767   69.6884   -7.9616 O.3     1  UNL1       -0.3794
     43 H          21.9258   69.6362   -8.1400 H       1  UNL1        0.2105
@<TRIPOS>BOND
     1    15    16   ar
     2    15    20   ar
     3    15     6    1
     4    16    17   ar
     5    16    21    2
     6    17    18   ar
     7    17    23    1
     8    18    19   ar
     9    18    22    2
    10    19    20   ar
    11     6     7    1
    12     6    11    1
    13     7     8    1
    14     7     9    1
    15     8    13    1
    16     9    10    1
    17     9    12    1
    18    10    11    1
    19    10     5    1
    20    12    14    1
    21     5     4    1
    22     4     1    1
    23     1     2    2
    24     1     3    1
    25     1    24    1
    26    24    25    1
    27    25    26    2
    28    25    27    1
    29    25    28    1
    30    28    29    1
    31    29    30    1
    32    29    37    1
    33    30    31    1
    34    30    34    1
    35    31    32    1
    36    31    35    1
    37    32    33    1
    38    32    36    1
    39    33    41    1
    40    33    37    1
    41    41    42    1
    42    34    38    1
    43    35    39    1
    44    36    40    1
    45    42    43    1
@<TRIPOS>MOLECULE
GDU
 43 45 0 0 0
SMALL
GASTEIGER

@<TRIPOS>ATOM
      1 P          15.5433   70.1836   -2.0721 P.3     1  UNL1        0.2189
      2 O          15.3796   69.1596   -3.1277 O.2     1  UNL1       -0.5170
      3 O          14.3412   71.2506   -2.1686 O.3     1  UNL1       -0.4371
      4 O          15.5176   69.4754   -0.6283 O.3     1  UNL1       -0.3112
      5 C          14.1603   69.4917   -0.1835 C.3     1  UNL1        0.1811
      6 C          13.1590   66.8735    2.0681 C.3     1  UNL1        0.2383
      7 C          11.8273   67.5119    1.5970 C.3     1  UNL1        0.1895
      8 O          10.7776   66.5420    1.5720 O.3     1  UNL1       -0.3779
      9 C          12.1816   67.9806    0.1617 C.3     1  UNL1        0.1713
     10 C          13.7190   68.0692    0.1657 C.3     1  UNL1        0.1764
     11 O          14.1665   67.7302    1.4897 O.3     1  UNL1       -0.3308
     12 O          11.7314   67.0255   -0.8012 O.3     1  UNL1       -0.3794
     13 H           9.9807   67.0013    1.2722 H       1  UNL1        0.2106
     14 H          10.7700   66.9720   -0.7142 H       1  UNL1        0.2105
     15 N          13.2500   66.8837    3.5290 N.ar    1  UNL1       -0.2551
     16 C          12.9142   65.7837    4.2258 C.ar    1  UNL1        0.3323
     17 N          12.9923   65.7657    5.5695 N.ar    1  UNL1       -0.2743
     18 C          13.4010   66.8590    6.2416 C.ar    1  UNL1        0.2626
     19 C          13.7524   68.0268    5.5212 C.ar    1  UNL1        0.0795
     20 C          13.6690   68.0163    4.1738 C.ar    1  UNL1        0.0869
     21 O          12.5442   64.7896    3.6334 O.2     1  UNL1       -0.2464
     22 O          13.4674   66.8452    7.4581 O.2     1  UNL1       -0.2670
     23 H          12.7501   64.9617    6.0560 H       1  UNL1        0.1734
     24 O          16.9493   70.9415   -2.2746 O.3     1  UNL1       -0.2703
     25 P          18.0368   69.8156   -2.6485 P.3     1  UNL1        0.2208
     26 O          19.3114   70.1129   -1.9586 O.2     1  UNL1       -0.5170
     27 O          17.4973   68.3722   -2.1798 O.3     1  UNL1       -0.4371
     28 O          18.2762   69.8068   -4.2400 O.3     1  UNL1       -0.2858
     29 C          17.9027   71.0979   -4.7230 C.3     1  UNL1        0.2704
     30 C          17.0736   70.9438   -5.9990 C.3     1  UNL1        0.1967
     31 C          17.9038   70.1942   -7.0455 C.3     1  UNL1        0.1715
     32 C          19.2424   70.9202   -7.2210 C.3     1  UNL1        0.1694
     33 C          19.9083   71.0744   -5.8515 C.3     1  UNL1        0.1761
     34 O          15.8845   70.2060   -5.7110 O.3     1  UNL1       -0.3775
     35 O          17.2007   70.1711   -8.2895 O.3     1  UNL1       -0.3794
     36 O          19.0156   72.2083   -7.7951 O.3     1  UNL1       -0.3794
     37 O          19.0768   71.8587   -4.9974 O.3     1  UNL1       -0.3258
     38 H          15.3981   70.7100   -5.0445 H       1  UNL1        0.2106
     39 H          16.3634   69.7176   -8.1294 H       1  UNL1        0.2105
     40 H          18.5911   72.0626   -8.6506 H       1  UNL1        0.2105
     41 C          21.2621   71.7679   -6.0197 C.3     1  UNL1        0.1693
     42 O          21.7875   71.4770   -7.3160 O.3     1  UNL1       -0.3794
     43 H          22.6384   71.9321   -7.3816 H       1  UNL1        0.2105
@<TRIPOS>BOND
     1    15    16   ar
     2    15    20   ar
     3    15     6    1
     4    16    17   ar
     5    16    21    2
     6    17    18   ar
     7    17    23    1
     8    18    19   ar
     9    18    22    2
    10    19    20   ar
    11     6     7    1
    12     6    11    1
    13     7     8    1
    14     7     9    1
    15     8    13    1
    16     9    10    1
    17     9    12    1
    18    10    11    1
    19    10     5    1
    20    12    14    1
    21     5     4    1
    22     4     1    1
    23     1     2    2
    24     1     3    1
    25     1    24    1
    26    24    25    1
    27    25    26    2
    28    25    27    1
    29    25    28    1
    30    28    29    1
    31    29    30    1
    32    29    37    1
    33    30    31    1
    34    30    34    1
    35    31    32    1
    36    31    35    1
    37    32    33    1
    38    32    36    1
    39    33    41    1
    40    33    37    1
    41    41    42    1
    42    34    38    1
    43    35    39    1
    44    36    40    1
    45    42    43    1
@<TRIPOS>MOLECULE
GDU
 43 45 0 0 0
SMALL
GASTEIGER

@<TRIPOS>ATOM
      1 P          20.7856   71.3962   -1.4002 P.3     1  UNL1        0.2189
      2 O          20.8406   70.7672   -0.0620 O.2     1  UNL1       -0.5170
      3 O          21.5799   70.4778   -2.4579 O.3     1  UNL1       -0.4371
      4 O          19.2519   71.5426   -1.8621 O.3     1  UNL1       -0.3112
      5 C          18.8801   70.3007   -2.4619 C.3     1  UNL1        0.1811
      6 C          17.1527   70.4614   -5.6111 C.3     1  UNL1        0.2383
      7 C          16.9535   69.0006   -5.1322 C.3     1  UNL1        0.1895
      8 O          15.7078   68.4766   -5.5979 O.3     1  UNL1       -0.3779
      9 C          16.9433   69.1629   -3.5899 C.3     1  UNL1        0.1713
     10 C          17.6524   70.5088   -3.3505 C.3     1  UNL1        0.1764
     11 O          18.0584   71.0159   -4.6336 O.3     1  UNL1       -0.3308
     12 O          15.6014   69.2028   -3.1006 O.3     1  UNL1       -0.3794
     13 H          15.6458   67.5695   -5.2674 H       1  UNL1        0.2106
     14 H          15.1935   68.3574   -3.3323 H       1  UNL1        0.2105
     15 N          17.7529   70.4915   -6.9459 N.ar    1  UNL1       -0.2551
     16 C          16.9630   70.4507   -8.0334 C.ar    1  UNL1        0.3323
     17 N          17.4894   70.4807   -9.2719 N.ar    1  UNL1       -0.2743
     18 C          18.8240   70.5425   -9.4422 C.ar    1  UNL1        0.2626
     19 C          19.6687   70.5803   -8.3059 C.ar    1  UNL1        0.0795
     20 C          19.1144   70.5532   -7.0753 C.ar    1  UNL1        0.0869
     21 O          15.7572   70.3954   -7.8956 O.2     1  UNL1       -0.2464
     22 O          19.3016   70.5649  -10.5629 O.2     1  UNL1       -0.2670
     23 H          16.9041   70.4548  -10.0456 H       1  UNL1        0.1734
     24 O          21.4695   72.8525   -1.3362 O.3     1  UNL1       -0.2703
     25 P          22.0680   73.1516   -2.7998 P.3     1  UNL1        0.2208
     26 O          23.2468   72.2893   -3.0361 O.2     1  UNL1       -0.5170
     27 O          20.9452   72.8415   -3.9122 O.3     1  UNL1       -0.4371
     28 O          22.5047   74.6976   -2.8965 O.3     1  UNL1       -0.2858
     29 C          22.7643   74.9701   -4.2742 C.3     1  UNL1        0.2704
     30 C          24.1979   75.4795   -4.4312 C.3     1  UNL1        0.1967
     31 C          24.3723   76.7458   -3.5872 C.3     1  UNL1        0.1715
     32 C          23.2782   77.7472   -3.9742 C.3     1  UNL1        0.1694
     33 C          21.9132   77.0659   -3.8498 C.3     1  UNL1        0.1761
     34 O          25.1134   74.4766   -3.9871 O.3     1  UNL1       -0.3775
     35 O          25.6587   77.3161   -3.8372 O.3     1  UNL1       -0.3794
     36 O          23.4808   78.1798   -5.3202 O.3     1  UNL1       -0.3794
     37 O          21.8464   75.9552   -4.7431 O.3     1  UNL1       -0.3258
     38 H          24.9636   73.6976   -4.5399 H       1  UNL1        0.2106
     39 H          26.3128   76.6496   -3.5917 H       1  UNL1        0.2105
     40 H          24.3520   78.5961   -5.3523 H       1  UNL1        0.2105
     41 C          20.8111   78.0678   -4.2011 C.3     1  UNL1        0.1693
     42 O          20.6533   78.1230   -5.6199 O.3     1  UNL1       -0.3794
     43 H          19.9510   78.7634   -5.7987 H       1  UNL1        0.2105
@<TRIPOS>BOND
     1    15    16   ar
     2    15    20   ar
     3    15     6    1
     4    16    17   ar
     5    16    21    2
     6    17    18   ar
     7    17    23    1
     8    18    19   ar
     9    18    22    2
    10    19    20   ar
    11     6     7    1
    12     6    11    1
    13     7     8    1
    14     7     9    1
    15     8    13    1
    16     9    10    1
    17     9    12    1
    18    10    11    1
    19    10     5    1
    20    12    14    1
    21     5     4    1
    22     4     1    1
    23     1     2    2
    24     1     3    1
    25     1    24    1
    26    24    25    1
    27    25    26    2
    28    25    27    1
    29    25    28    1
    30    28    29    1
    31    29    30    1
    32    29    37    1
    33    30    31    1
    34    30    34    1
    35    31    32    1
    36    31    35    1
    37    32    33    1
    38    32    36    1
    39    33    41    1
    40    33    37    1
    41    41    42    1
    42    34    38    1
    43    35    39    1
    44    36    40    1
    45    42    43    1
@<TRIPOS>MOLECULE
GDU
 43 45 0 0 0
SMALL
GASTEIGER

@<TRIPOS>ATOM
      1 P          20.7484   71.3402   -0.4814 P.3     1  UNL1        0.2189
      2 O          20.1642   72.5601    0.1186 O.2     1  UNL1       -0.5170
      3 O          21.2499   70.3540    0.6886 O.3     1  UNL1       -0.4371
      4 O          19.6360   70.5941   -1.3719 O.3     1  UNL1       -0.3112
      5 C          19.7848   71.0756   -2.7085 C.3     1  UNL1        0.1811
      6 C          17.6662   70.6005   -5.5743 C.3     1  UNL1        0.2383
      7 C          17.7386   69.2028   -4.9080 C.3     1  UNL1        0.1895
      8 O          16.5307   68.4703   -5.1268 O.3     1  UNL1       -0.3779
      9 C          17.9015   69.5656   -3.4090 C.3     1  UNL1        0.1713
     10 C          18.4372   71.0092   -3.4294 C.3     1  UNL1        0.1764
     11 O          18.6009   71.3884   -4.8069 O.3     1  UNL1       -0.3308
     12 O          16.6406   69.5021   -2.7397 O.3     1  UNL1       -0.3794
     13 H          16.6404   67.6145   -4.6894 H       1  UNL1        0.2106
     14 H          16.3306   68.5892   -2.8122 H       1  UNL1        0.2105
     15 N          18.0815   70.5282   -6.9761 N.ar    1  UNL1       -0.2551
     16 C          17.1594   70.3361   -7.9359 C.ar    1  UNL1        0.3323
     17 N          17.5144   70.2693   -9.2325 N.ar    1  UNL1       -0.2743
     18 C          18.8078   70.3847   -9.5902 C.ar    1  UNL1        0.2626
     19 C          19.7908   70.5816   -8.5896 C.ar    1  UNL1        0.0795
     20 C          19.4069   70.6490   -7.2971 C.ar    1  UNL1        0.0869
     21 O          15.9887   70.2307   -7.6286 O.2     1  UNL1       -0.2464
     22 O          19.1307   70.3196  -10.7633 O.2     1  UNL1       -0.2670
     23 H          16.8351   70.1345   -9.9123 H       1  UNL1        0.1734
     24 O          21.9983   71.7464   -1.4115 O.3     1  UNL1       -0.2703
     25 P          23.1355   72.3323   -0.4351 P.3     1  UNL1        0.2208
     26 O          22.4980   72.9612    0.7427 O.2     1  UNL1       -0.5170
     27 O          24.0950   71.1335    0.0509 O.3     1  UNL1       -0.4371
     28 O          24.0084   73.4303   -1.2242 O.3     1  UNL1       -0.2858
     29 C          23.1827   73.9426   -2.2710 C.3     1  UNL1        0.2704
     30 C          23.9936   74.0242   -3.5653 C.3     1  UNL1        0.1967
     31 C          25.2052   74.9335   -3.3380 C.3     1  UNL1        0.1715
     32 C          24.7131   76.2780   -2.7906 C.3     1  UNL1        0.1694
     33 C          23.8487   76.0252   -1.5530 C.3     1  UNL1        0.1761
     34 O          24.4367   72.7175   -3.9357 O.3     1  UNL1       -0.3775
     35 O          25.8908   75.1379   -4.5752 O.3     1  UNL1       -0.3794
     36 O          23.9420   76.9471   -3.7894 O.3     1  UNL1       -0.3794
     37 O          22.7128   75.2397   -1.9115 O.3     1  UNL1       -0.3258
     38 H          23.6434   72.1791   -4.0611 H       1  UNL1        0.2106
     39 H          26.1707   74.2681   -4.8872 H       1  UNL1        0.2105
     40 H          24.5233   77.0797   -4.5496 H       1  UNL1        0.2105
     41 C          23.3801   77.3639   -0.9782 C.3     1  UNL1        0.1693
     42 O          24.3586   78.3680   -1.2529 O.3     1  UNL1       -0.3794
     43 H          24.0256   79.1939   -0.8759 H       1  UNL1        0.2105
@<TRIPOS>BOND
     1    15    16   ar
     2    15    20   ar
     3    15     6    1
     4    16    17   ar
     5    16    21    2
     6    17    18   ar
     7    17    23    1
     8    18    19   ar
     9    18    22    2
    10    19    20   ar
    11     6     7    1
    12     6    11    1
    13     7     8    1
    14     7     9    1
    15     8    13    1
    16     9    10    1
    17     9    12    1
    18    10    11    1
    19    10     5    1
    20    12    14    1
    21     5     4    1
    22     4     1    1
    23     1     2    2
    24     1     3    1
    25     1    24    1
    26    24    25    1
    27    25    26    2
    28    25    27    1
    29    25    28    1
    30    28    29    1
    31    29    30    1
    32    29    37    1
    33    30    31    1
    34    30    34    1
    35    31    32    1
    36    31    35    1
    37    32    33    1
    38    32    36    1
    39    33    41    1
    40    33    37    1
    41    41    42    1
    42    34    38    1
    43    35    39    1
    44    36    40    1
    45    42    43    1
@<TRIPOS>MOLECULE
GDU
 43 45 0 0 0
SMALL
GASTEIGER

@<TRIPOS>ATOM
      1 P          23.0963   71.4608   -2.6107 P.3     1  UNL1        0.2189
      2 O          23.3827   72.9123   -2.6348 O.2     1  UNL1       -0.5170
      3 O          24.4121   70.6467   -3.0569 O.3     1  UNL1       -0.4371
      4 O          22.6724   71.0216   -1.1226 O.3     1  UNL1       -0.3112
      5 C          23.0683   72.0810   -0.2500 C.3     1  UNL1        0.1811
      6 C          21.1612   73.7712    2.2865 C.3     1  UNL1        0.2383
      7 C          21.8392   74.9116    1.4848 C.3     1  UNL1        0.1895
      8 O          21.0261   76.0872    1.4834 O.3     1  UNL1       -0.3779
      9 C          21.9294   74.2998    0.0625 C.3     1  UNL1        0.1713
     10 C          21.8251   72.7819    0.3008 C.3     1  UNL1        0.1764
     11 O          21.7361   72.5740    1.7210 O.3     1  UNL1       -0.3308
     12 O          20.8476   74.7610   -0.7492 O.3     1  UNL1       -0.3794
     13 H          21.5025   76.7552    0.9709 H       1  UNL1        0.2106
     14 H          20.9345   75.7218   -0.8122 H       1  UNL1        0.2105
     15 N          21.4847   73.8758    3.7103 N.ar    1  UNL1       -0.2551
     16 C          22.7047   73.5145    4.1453 C.ar    1  UNL1        0.3323
     17 N          23.0287   73.6043    5.4487 N.ar    1  UNL1       -0.2743
     18 C          22.1273   74.0508    6.3443 C.ar    1  UNL1        0.2626
     19 C          20.8363   74.4296    5.9013 C.ar    1  UNL1        0.0795
     20 C          20.5390   74.3336    4.5880 C.ar    1  UNL1        0.0869
     21 O          23.5286   73.1102    3.3492 O.2     1  UNL1       -0.2464
     22 O          22.4181   74.1280    7.5250 O.2     1  UNL1       -0.2670
     23 H          23.9154   73.3431    5.7445 H       1  UNL1        0.1734
     24 O          21.8939   71.1351   -3.6308 O.3     1  UNL1       -0.2703
     25 P          21.6946   72.4413   -4.5495 P.3     1  UNL1        0.2208
     26 O          21.6365   73.6443   -3.6902 O.2     1  UNL1       -0.5170
     27 O          22.9323   72.5720   -5.5718 O.3     1  UNL1       -0.4371
     28 O          20.3239   72.3089   -5.3825 O.3     1  UNL1       -0.2858
     29 C          20.3857   71.0691   -6.0888 C.3     1  UNL1        0.2704
     30 C          19.9352   71.2837   -7.5345 C.3     1  UNL1        0.1967
     31 C          18.5063   71.8357   -7.5348 C.3     1  UNL1        0.1715
     32 C          17.6190   70.8990   -6.7073 C.3     1  UNL1        0.1694
     33 C          18.2447   70.7150   -5.3225 C.3     1  UNL1        0.1761
     34 O          20.8096   72.2145   -8.1751 O.3     1  UNL1       -0.3775
     35 O          18.0179   71.9031   -8.8762 O.3     1  UNL1       -0.3794
     36 O          17.5175   69.6341   -7.3630 O.3     1  UNL1       -0.3794
     37 O          19.5345   70.1187   -5.4525 O.3     1  UNL1       -0.3258
     38 H          21.6963   71.8301   -8.1455 H       1  UNL1        0.2106
     39 H          18.6109   72.4911   -9.3608 H       1  UNL1        0.2105
     40 H          17.1250   69.7991   -8.2302 H       1  UNL1        0.2105
     41 C          17.3483   69.8082   -4.4761 C.3     1  UNL1        0.1693
     42 O          15.9780   70.1139   -4.7402 O.3     1  UNL1       -0.3794
     43 H          15.4480   69.5217   -4.1891 H       1  UNL1        0.2105
@<TRIPOS>BOND
     1    15    16   ar
     2    15    20   ar
     3    15     6    1
     4    16    17   ar
     5    16    21    2
     6    17    18   ar
     7    17    23    1
     8    18    19   ar
     9    18    22    2
    10    19    20   ar
    11     6     7    1
    12     6    11    1
    13     7     8    1
    14     7     9    1
    15     8    13    1
    16     9    10    1
    17     9    12    1
    18    10    11    1
    19    10     5    1
    20    12    14    1
    21     5     4    1
    22     4     1    1
    23     1     2    2
    24     1     3    1
    25     1    24    1
    26    24    25    1
    27    25    26    2
    28    25    27    1
    29    25    28    1
    30    28    29    1
    31    29    30    1
    32    29    37    1
    33    30    31    1
    34    30    34    1
    35    31    32    1
    36    31    35    1
    37    32    33    1
    38    32    36    1
    39    33    41    1
    40    33    37    1
    41    41    42    1
    42    34    38    1
    43    35    39    1
    44    36    40    1
    45    42    43    1
@<TRIPOS>MOLECULE
GDU
 43 45 0 0 0
SMALL
GASTEIGER

@<TRIPOS>ATOM
      1 P          20.4854   71.9312   -1.4769 P.3     1  UNL1        0.2189
      2 O          19.5257   72.9193   -0.9363 O.2     1  UNL1       -0.5170
      3 O          20.0059   70.4457   -1.0814 O.3     1  UNL1       -0.4371
      4 O          20.5499   72.0657   -3.0783 O.3     1  UNL1       -0.3112
      5 C          21.9036   71.8163   -3.4603 C.3     1  UNL1        0.1811
      6 C          20.5985   71.8197   -6.8105 C.3     1  UNL1        0.2383
      7 C          20.7143   73.3196   -6.4366 C.3     1  UNL1        0.1895
      8 O          20.9802   74.1147   -7.5943 O.3     1  UNL1       -0.3779
      9 C          21.9298   73.3213   -5.4733 C.3     1  UNL1        0.1713
     10 C          22.0222   71.8638   -4.9847 C.3     1  UNL1        0.1764
     11 O          20.9329   71.1394   -5.5822 O.3     1  UNL1       -0.3308
     12 O          23.1189   73.6988   -6.1700 O.3     1  UNL1       -0.3794
     13 H          21.0401   75.0325   -7.2945 H       1  UNL1        0.2106
     14 H          22.9766   74.5959   -6.5012 H       1  UNL1        0.2105
     15 N          19.2332   71.4933   -7.2257 N.ar    1  UNL1       -0.2551
     16 C          19.0225   70.4885   -8.0941 C.ar    1  UNL1        0.3323
     17 N          17.7769   70.1657   -8.4893 N.ar    1  UNL1       -0.2743
     18 C          16.7165   70.8549   -8.0257 C.ar    1  UNL1        0.2626
     19 C          16.9238   71.9196   -7.1149 C.ar    1  UNL1        0.0795
     20 C          18.1831   72.2195   -6.7318 C.ar    1  UNL1        0.0869
     21 O          19.9692   69.8575   -8.5205 O.2     1  UNL1       -0.2464
     22 O          15.5890   70.5666   -8.3865 O.2     1  UNL1       -0.2670
     23 H          17.6430   69.4348   -9.1133 H       1  UNL1        0.1734
     24 O          21.9448   72.2059   -0.8547 O.3     1  UNL1       -0.2703
     25 P          21.8632   71.8335    0.7088 P.3     1  UNL1        0.2208
     26 O          20.4450   71.7365    1.1192 O.2     1  UNL1       -0.5170
     27 O          22.5924   70.4199    0.9622 O.3     1  UNL1       -0.4371
     28 O          22.5960   72.9764    1.5728 O.3     1  UNL1       -0.2858
     29 C          23.0519   72.3582    2.7769 C.3     1  UNL1        0.2704
     30 C          22.3298   72.9799    3.9734 C.3     1  UNL1        0.1967
     31 C          22.6111   74.4854    3.9983 C.3     1  UNL1        0.1715
     32 C          24.1285   74.7010    3.9682 C.3     1  UNL1        0.1694
     33 C          24.7142   73.9498    2.7700 C.3     1  UNL1        0.1761
     34 O          20.9239   72.7561    3.8530 O.3     1  UNL1       -0.3775
     35 O          22.0663   75.0559    5.1900 O.3     1  UNL1       -0.3794
     36 O          24.7055   74.2058    5.1772 O.3     1  UNL1       -0.3794
     37 O          24.4583   72.5527    2.9058 O.3     1  UNL1       -0.3258
     38 H          20.7945   71.7980    3.8340 H       1  UNL1        0.2106
     39 H          21.1159   74.8867    5.1721 H       1  UNL1        0.2105
     40 H          24.3042   74.7019    5.9026 H       1  UNL1        0.2105
     41 C          26.2250   74.1866    2.7107 C.3     1  UNL1        0.1693
     42 O          26.8971   73.1511    3.4297 O.3     1  UNL1       -0.3794
     43 H          27.8442   73.3365    3.3675 H       1  UNL1        0.2105
@<TRIPOS>BOND
     1    15    16   ar
     2    15    20   ar
     3    15     6    1
     4    16    17   ar
     5    16    21    2
     6    17    18   ar
     7    17    23    1
     8    18    19   ar
     9    18    22    2
    10    19    20   ar
    11     6     7    1
    12     6    11    1
    13     7     8    1
    14     7     9    1
    15     8    13    1
    16     9    10    1
    17     9    12    1
    18    10    11    1
    19    10     5    1
    20    12    14    1
    21     5     4    1
    22     4     1    1
    23     1     2    2
    24     1     3    1
    25     1    24    1
    26    24    25    1
    27    25    26    2
    28    25    27    1
    29    25    28    1
    30    28    29    1
    31    29    30    1
    32    29    37    1
    33    30    31    1
    34    30    34    1
    35    31    32    1
    36    31    35    1
    37    32    33    1
    38    32    36    1
    39    33    41    1
    40    33    37    1
    41    41    42    1
    42    34    38    1
    43    35    39    1
    44    36    40    1
    45    42    43    1
@<TRIPOS>MOLECULE
GDU
 43 45 0 0 0
SMALL
GASTEIGER

@<TRIPOS>ATOM
      1 P          23.1709   73.8752   -4.2226 P.3     1  UNL1        0.2189
      2 O          23.9133   74.9594   -4.9031 O.2     1  UNL1       -0.5170
      3 O          23.9641   72.4857   -4.4045 O.3     1  UNL1       -0.4371
      4 O          23.0380   74.2163   -2.6565 O.3     1  UNL1       -0.3112
      5 C          21.8666   73.5481   -2.1855 C.3     1  UNL1        0.1811
      6 C          23.5515   71.7371    0.4238 C.3     1  UNL1        0.2383
      7 C          22.1353   72.0105    0.9919 C.3     1  UNL1        0.1895
      8 O          21.7328   70.9671    1.8821 O.3     1  UNL1       -0.3779
      9 C          21.2646   72.0092   -0.2915 C.3     1  UNL1        0.1713
     10 C          22.2696   72.2829   -1.4258 C.3     1  UNL1        0.1764
     11 O          23.5616   72.4668   -0.8215 O.3     1  UNL1       -0.3308
     12 O          20.6356   70.7382   -0.4672 O.3     1  UNL1       -0.3794
     13 H          20.8481   71.1969    2.1991 H       1  UNL1        0.2106
     14 H          20.0661   70.5989    0.3015 H       1  UNL1        0.2105
     15 N          24.5808   72.2491    1.3300 N.ar    1  UNL1       -0.2551
     16 C          25.3855   71.3892    1.9791 C.ar    1  UNL1        0.3323
     17 N          26.3421   71.8340    2.8151 N.ar    1  UNL1       -0.2743
     18 C          26.5027   73.1550    3.0233 C.ar    1  UNL1        0.2626
     19 C          25.6585   74.0723    2.3508 C.ar    1  UNL1        0.0795
     20 C          24.7100   73.5994    1.5147 C.ar    1  UNL1        0.0869
     21 O          25.2529   70.1947    1.8010 O.2     1  UNL1       -0.2464
     22 O          27.3652   73.5584    3.7835 O.2     1  UNL1       -0.2670
     23 H          26.9168   71.1993    3.2719 H       1  UNL1        0.1734
     24 O          21.7030   73.7424   -4.8708 O.3     1  UNL1       -0.2703
     25 P          21.6982   72.3891   -5.7417 P.3     1  UNL1        0.2208
     26 O          22.9124   72.3416   -6.5858 O.2     1  UNL1       -0.5170
     27 O          21.6812   71.1163   -4.7549 O.3     1  UNL1       -0.4371
     28 O          20.3902   72.3575   -6.6789 O.3     1  UNL1       -0.2858
     29 C          19.7078   71.1348   -6.3978 C.3     1  UNL1        0.2704
     30 C          19.8289   70.1962   -7.5993 C.3     1  UNL1        0.1967
     31 C          19.2266   70.8812   -8.8299 C.3     1  UNL1        0.1715
     32 C          17.7996   71.3281   -8.4925 C.3     1  UNL1        0.1694
     33 C          17.8328   72.1832   -7.2233 C.3     1  UNL1        0.1761
     34 O          21.2062   69.9018   -7.8397 O.3     1  UNL1       -0.3775
     35 O          19.1985   69.9632   -9.9248 O.3     1  UNL1       -0.3794
     36 O          16.9771   70.1801   -8.2796 O.3     1  UNL1       -0.3794
     37 O          18.3338   71.4091   -6.1344 O.3     1  UNL1       -0.3258
     38 H          21.5451   69.4793   -7.0388 H       1  UNL1        0.2106
     39 H          20.1123   69.7008  -10.0935 H       1  UNL1        0.2105
     40 H          16.9905   69.6701   -9.1001 H       1  UNL1        0.2105
     41 C          16.4169   72.6633   -6.8968 C.3     1  UNL1        0.1693
     42 O          16.0895   72.3004   -5.5544 O.3     1  UNL1       -0.3794
     43 H          15.1922   72.6209   -5.3886 H       1  UNL1        0.2105
@<TRIPOS>BOND
     1    15    16   ar
     2    15    20   ar
     3    15     6    1
     4    16    17   ar
     5    16    21    2
     6    17    18   ar
     7    17    23    1
     8    18    19   ar
     9    18    22    2
    10    19    20   ar
    11     6     7    1
    12     6    11    1
    13     7     8    1
    14     7     9    1
    15     8    13    1
    16     9    10    1
    17     9    12    1
    18    10    11    1
    19    10     5    1
    20    12    14    1
    21     5     4    1
    22     4     1    1
    23     1     2    2
    24     1     3    1
    25     1    24    1
    26    24    25    1
    27    25    26    2
    28    25    27    1
    29    25    28    1
    30    28    29    1
    31    29    30    1
    32    29    37    1
    33    30    31    1
    34    30    34    1
    35    31    32    1
    36    31    35    1
    37    32    33    1
    38    32    36    1
    39    33    41    1
    40    33    37    1
    41    41    42    1
    42    34    38    1
    43    35    39    1
    44    36    40    1
    45    42    43    1
@<TRIPOS>MOLECULE
GDU
 43 45 0 0 0
SMALL
GASTEIGER

@<TRIPOS>ATOM
      1 P          21.7486   71.5093    0.1622 P.3     1  UNL1        0.2189
      2 O          20.4178   72.1492    0.0665 O.2     1  UNL1       -0.5170
      3 O          21.6299   70.1498    1.0170 O.3     1  UNL1       -0.4371
      4 O          22.2886   71.1694   -1.3142 O.3     1  UNL1       -0.3112
      5 C          21.2549   71.5391   -2.2281 C.3     1  UNL1        0.1811
      6 C          20.6354   70.8883   -5.7095 C.3     1  UNL1        0.2383
      7 C          21.0701   72.3755   -5.6630 C.3     1  UNL1        0.1895
      8 O          21.7436   72.7478   -6.8676 O.3     1  UNL1       -0.3779
      9 C          22.0448   72.3915   -4.4568 C.3     1  UNL1        0.1713
     10 C          21.6599   71.1389   -3.6480 C.3     1  UNL1        0.1764
     11 O          20.5477   70.5193   -4.3168 O.3     1  UNL1       -0.3308
     12 O          23.3984   72.3080   -4.9071 O.3     1  UNL1       -0.3794
     13 H          21.9861   73.6797   -6.7749 H       1  UNL1        0.2106
     14 H          23.5600   73.0882   -5.4547 H       1  UNL1        0.2105
     15 N          19.3327   70.7496   -6.3628 N.ar    1  UNL1       -0.2551
     16 C          19.2719   70.4441   -7.6709 C.ar    1  UNL1        0.3323
     17 N          18.0870   70.3074   -8.2948 N.ar    1  UNL1       -0.2743
     18 C          16.9370   70.4853   -7.6166 C.ar    1  UNL1        0.2626
     19 C          16.9858   70.8132   -6.2395 C.ar    1  UNL1        0.0795
     20 C          18.1874   70.9401   -5.6375 C.ar    1  UNL1        0.0869
     21 O          20.3009   70.2801   -8.2957 O.2     1  UNL1       -0.2464
     22 O          15.8640   70.3664   -8.1815 O.2     1  UNL1       -0.2670
     23 H          18.0618   70.0823   -9.2384 H       1  UNL1        0.1734
     24 O          22.7743   72.5128    0.8924 O.3     1  UNL1       -0.2703
     25 P          22.9859   71.9571    2.3879 P.3     1  UNL1        0.2208
     26 O          21.6679   71.7158    3.0153 O.2     1  UNL1       -0.5170
     27 O          23.8153   70.5775    2.3351 O.3     1  UNL1       -0.4371
     28 O          23.8030   73.0403    3.2534 O.3     1  UNL1       -0.2858
     29 C          22.9372   74.1605    3.4406 C.3     1  UNL1        0.2704
     30 C          23.6045   75.4186    2.8827 C.3     1  UNL1        0.1967
     31 C          24.9371   75.6384    3.6053 C.3     1  UNL1        0.1715
     32 C          24.6788   75.6524    5.1162 C.3     1  UNL1        0.1694
     33 C          23.9312   74.3746    5.5052 C.3     1  UNL1        0.1761
     34 O          23.8386   75.2555    1.4828 O.3     1  UNL1       -0.3775
     35 O          25.5024   76.8871    3.2009 O.3     1  UNL1       -0.3794
     36 O          23.8913   76.7946    5.4557 O.3     1  UNL1       -0.3794
     37 O          22.6741   74.3284    4.8317 O.3     1  UNL1       -0.3258
     38 H          22.9758   75.1131    1.0703 H       1  UNL1        0.2106
     39 H          25.6362   76.8375    2.2459 H       1  UNL1        0.2105
     40 H          24.3973   77.5729    5.1883 H       1  UNL1        0.2105
     41 C          23.6983   74.3624    7.0177 C.3     1  UNL1        0.1693
     42 O          22.3491   73.9781    7.2880 O.3     1  UNL1       -0.3794
     43 H          22.2442   73.9821    8.2493 H       1  UNL1        0.2105
@<TRIPOS>BOND
     1    15    16   ar
     2    15    20   ar
     3    15     6    1
     4    16    17   ar
     5    16    21    2
     6    17    18   ar
     7    17    23    1
     8    18    19   ar
     9    18    22    2
    10    19    20   ar
    11     6     7    1
    12     6    11    1
    13     7     8    1
    14     7     9    1
    15     8    13    1
    16     9    10    1
    17     9    12    1
    18    10    11    1
    19    10     5    1
    20    12    14    1
    21     5     4    1
    22     4     1    1
    23     1     2    2
    24     1     3    1
    25     1    24    1
    26    24    25    1
    27    25    26    2
    28    25    27    1
    29    25    28    1
    30    28    29    1
    31    29    30    1
    32    29    37    1
    33    30    31    1
    34    30    34    1
    35    31    32    1
    36    31    35    1
    37    32    33    1
    38    32    36    1
    39    33    41    1
    40    33    37    1
    41    41    42    1
    42    34    38    1
    43    35    39    1
    44    36    40    1
    45    42    43    1
@<TRIPOS>MOLECULE
GDU
 43 45 0 0 0
SMALL
GASTEIGER

@<TRIPOS>ATOM
      1 P          21.8007   71.5238   -0.9467 P.3     1  UNL1        0.2189
      2 O          20.9903   70.5415   -0.1933 O.2     1  UNL1       -0.5170
      3 O          21.1703   72.9940   -0.7616 O.3     1  UNL1       -0.4371
      4 O          23.3102   71.5134   -0.3916 O.3     1  UNL1       -0.3112
      5 C          23.2465   71.0936    0.9723 C.3     1  UNL1        0.1811
      6 C          25.4030   73.1831    2.9499 C.3     1  UNL1        0.2383
      7 C          25.3815   73.8569    1.5540 C.3     1  UNL1        0.1895
      8 O          25.5437   75.2725    1.6685 O.3     1  UNL1       -0.3779
      9 C          23.9603   73.5025    1.0441 C.3     1  UNL1        0.1713
     10 C          23.5540   72.2800    1.8878 C.3     1  UNL1        0.1764
     11 O          24.6634   71.9606    2.7453 O.3     1  UNL1       -0.3308
     12 O          23.0635   74.5926    1.2664 O.3     1  UNL1       -0.3794
     13 H          25.5218   75.6293    0.7696 H       1  UNL1        0.2106
     14 H          23.4034   75.3427    0.7599 H       1  UNL1        0.2105
     15 N          26.7767   72.8920    3.3634 N.ar    1  UNL1       -0.2551
     16 C          27.3796   71.7704    2.9312 C.ar    1  UNL1        0.3323
     17 N          28.6432   71.4809    3.2937 N.ar    1  UNL1       -0.2743
     18 C          29.3240   72.3103    4.1078 C.ar    1  UNL1        0.2626
     19 C          28.6996   73.4925    4.5755 C.ar    1  UNL1        0.0795
     20 C          27.4330   73.7608    4.1931 C.ar    1  UNL1        0.0869
     21 O          26.7783   71.0128    2.1959 O.2     1  UNL1       -0.2464
     22 O          30.4662   72.0467    4.4404 O.2     1  UNL1       -0.2670
     23 H          29.0643   70.6691    2.9689 H       1  UNL1        0.1734
     24 O          21.7993   71.1337   -2.5089 O.3     1  UNL1       -0.2703
     25 P          23.1231   71.7835   -3.1533 P.3     1  UNL1        0.2208
     26 O          23.4525   73.0386   -2.4424 O.2     1  UNL1       -0.5170
     27 O          24.3506   70.7500   -3.0133 O.3     1  UNL1       -0.4371
     28 O          22.8641   72.0993   -4.7099 O.3     1  UNL1       -0.2858
     29 C          21.6013   72.7610   -4.7945 C.3     1  UNL1        0.2704
     30 C          20.8201   72.2161   -5.9913 C.3     1  UNL1        0.1967
     31 C          21.6373   72.4454   -7.2664 C.3     1  UNL1        0.1715
     32 C          22.0076   73.9305   -7.3506 C.3     1  UNL1        0.1694
     33 C          22.7011   74.3451   -6.0505 C.3     1  UNL1        0.1761
     34 O          20.5881   70.8174   -5.8147 O.3     1  UNL1       -0.3775
     35 O          20.8602   72.0764   -8.4076 O.3     1  UNL1       -0.3794
     36 O          20.8241   74.7083   -7.5356 O.3     1  UNL1       -0.3794
     37 O          21.8106   74.1626   -4.9507 O.3     1  UNL1       -0.3258
     38 H          20.0783   70.7200   -4.9989 H       1  UNL1        0.2106
     39 H          20.6409   71.1415   -8.3064 H       1  UNL1        0.2105
     40 H          20.4191   74.4097   -8.3604 H       1  UNL1        0.2105
     41 C          23.1058   75.8184   -6.1379 C.3     1  UNL1        0.1693
     42 O          24.5293   75.9247   -6.0786 O.3     1  UNL1       -0.3794
     43 H          24.7423   76.8662   -6.1373 H       1  UNL1        0.2105
@<TRIPOS>BOND
     1    15    16   ar
     2    15    20   ar
     3    15     6    1
     4    16    17   ar
     5    16    21    2
     6    17    18   ar
     7    17    23    1
     8    18    19   ar
     9    18    22    2
    10    19    20   ar
    11     6     7    1
    12     6    11    1
    13     7     8    1
    14     7     9    1
    15     8    13    1
    16     9    10    1
    17     9    12    1
    18    10    11    1
    19    10     5    1
    20    12    14    1
    21     5     4    1
    22     4     1    1
    23     1     2    2
    24     1     3    1
    25     1    24    1
    26    24    25    1
    27    25    26    2
    28    25    27    1
    29    25    28    1
    30    28    29    1
    31    29    30    1
    32    29    37    1
    33    30    31    1
    34    30    34    1
    35    31    32    1
    36    31    35    1
    37    32    33    1
    38    32    36    1
    39    33    41    1
    40    33    37    1
    41    41    42    1
    42    34    38    1
    43    35    39    1
    44    36    40    1
    45    42    43    1
@<TRIPOS>MOLECULE
GDU
 43 45 0 0 0
SMALL
GASTEIGER

@<TRIPOS>ATOM
      1 P          20.0838   72.9142   -2.2100 P.3     1  UNL1        0.2189
      2 O          20.3382   74.2294   -2.8384 O.2     1  UNL1       -0.5170
      3 O          20.7643   71.7552   -3.0970 O.3     1  UNL1       -0.4371
      4 O          20.7121   72.8957   -0.7296 O.3     1  UNL1       -0.3112
      5 C          22.1203   73.0863   -0.8753 C.3     1  UNL1        0.1811
      6 C          24.4588   71.9637    1.6144 C.3     1  UNL1        0.2383
      7 C          23.1010   72.0333    2.3591 C.3     1  UNL1        0.1895
      8 O          23.0372   71.0513    3.3959 O.3     1  UNL1       -0.3779
      9 C          22.0923   71.7085    1.2268 C.3     1  UNL1        0.1713
     10 C          22.8669   72.0241   -0.0663 C.3     1  UNL1        0.1764
     11 O          24.1605   72.5220    0.3171 O.3     1  UNL1       -0.3308
     12 O          21.7191   70.3299    1.2705 O.3     1  UNL1       -0.3794
     13 H          22.1722   71.1475    3.8182 H       1  UNL1        0.2106
     14 H          21.2929   70.1821    2.1256 H       1  UNL1        0.2105
     15 N          25.4689   72.7691    2.3026 N.ar    1  UNL1       -0.2551
     16 C          26.5809   72.1807    2.7775 C.ar    1  UNL1        0.3323
     17 N          27.5267   72.8990    3.4110 N.ar    1  UNL1       -0.2743
     18 C          27.3686   74.2248    3.5887 C.ar    1  UNL1        0.2626
     19 C          26.1996   74.8571    3.0988 C.ar    1  UNL1        0.0795
     20 C          25.2689   74.1138    2.4635 C.ar    1  UNL1        0.0869
     21 O          26.7378   70.9857    2.6243 O.2     1  UNL1       -0.2464
     22 O          28.2219   74.8750    4.1662 O.2     1  UNL1       -0.2670
     23 H          28.3250   72.4586    3.7435 H       1  UNL1        0.1734
     24 O          18.4962   72.6598   -2.1239 O.3     1  UNL1       -0.2703
     25 P          18.2478   71.1210   -2.5245 P.3     1  UNL1        0.2208
     26 O          19.1858   70.2582   -1.7729 O.2     1  UNL1       -0.5170
     27 O          16.7333   70.7100   -2.1616 O.3     1  UNL1       -0.4371
     28 O          18.4904   70.9306   -4.1040 O.3     1  UNL1       -0.2858
     29 C          17.5860   71.8114   -4.7719 C.3     1  UNL1        0.2704
     30 C          16.7883   71.0270   -5.8149 C.3     1  UNL1        0.1967
     31 C          17.7616   70.3924   -6.8131 C.3     1  UNL1        0.1715
     32 C          18.6701   71.4905   -7.3773 C.3     1  UNL1        0.1694
     33 C          19.3271   72.2390   -6.2148 C.3     1  UNL1        0.1761
     34 O          16.0298   70.0040   -5.1673 O.3     1  UNL1       -0.3775
     35 O          17.0279   69.7800   -7.8758 O.3     1  UNL1       -0.3794
     36 O          17.8930   72.3992   -8.1586 O.3     1  UNL1       -0.3794
     37 O          18.3226   72.8528   -5.4085 O.3     1  UNL1       -0.3258
     38 H          15.4377   70.4475   -4.5448 H       1  UNL1        0.2106
     39 H          16.4636   69.1070   -7.4746 H       1  UNL1        0.2105
     40 H          17.4950   71.8846   -8.8728 H       1  UNL1        0.2105
     41 C          20.2633   73.3158   -6.7679 C.3     1  UNL1        0.1693
     42 O          20.9420   72.8103   -7.9189 O.3     1  UNL1       -0.3794
     43 H          21.5198   73.5179   -8.2364 H       1  UNL1        0.2105
@<TRIPOS>BOND
     1    15    16   ar
     2    15    20   ar
     3    15     6    1
     4    16    17   ar
     5    16    21    2
     6    17    18   ar
     7    17    23    1
     8    18    19   ar
     9    18    22    2
    10    19    20   ar
    11     6     7    1
    12     6    11    1
    13     7     8    1
    14     7     9    1
    15     8    13    1
    16     9    10    1
    17     9    12    1
    18    10    11    1
    19    10     5    1
    20    12    14    1
    21     5     4    1
    22     4     1    1
    23     1     2    2
    24     1     3    1
    25     1    24    1
    26    24    25    1
    27    25    26    2
    28    25    27    1
    29    25    28    1
    30    28    29    1
    31    29    30    1
    32    29    37    1
    33    30    31    1
    34    30    34    1
    35    31    32    1
    36    31    35    1
    37    32    33    1
    38    32    36    1
    39    33    41    1
    40    33    37    1
    41    41    42    1
    42    34    38    1
    43    35    39    1
    44    36    40    1
    45    42    43    1
@<TRIPOS>MOLECULE
GDU
 43 45 0 0 0
SMALL
GASTEIGER

@<TRIPOS>ATOM
      1 P          16.5521   69.4515   -2.1927 P.3     1  UNL1        0.2189
      2 O          17.8031   68.6613   -2.2099 O.2     1  UNL1       -0.5170
      3 O          15.8938   69.4458   -3.6623 O.3     1  UNL1       -0.4371
      4 O          15.5222   68.8038   -1.1408 O.3     1  UNL1       -0.3112
      5 C          14.6320   69.8460   -0.7381 C.3     1  UNL1        0.1811
      6 C          12.0036   68.0031    0.8813 C.3     1  UNL1        0.2383
      7 C          11.8138   69.4620    1.3695 C.3     1  UNL1        0.1895
      8 O          10.4353   69.7378    1.6284 O.3     1  UNL1       -0.3779
      9 C          12.3227   70.2801    0.1542 C.3     1  UNL1        0.1713
     10 C          13.2125   69.2886   -0.6182 C.3     1  UNL1        0.1764
     11 O          13.2322   68.0579    0.1256 O.3     1  UNL1       -0.3308
     12 O          11.2251   70.7112   -0.6528 O.3     1  UNL1       -0.3794
     13 H          10.3861   70.6565    1.9274 H       1  UNL1        0.2106
     14 H          10.6750   71.2796   -0.0969 H       1  UNL1        0.2105
     15 N          12.1374   67.0899    2.0176 N.ar    1  UNL1       -0.2551
     16 C          13.3610   66.7256    2.4399 C.ar    1  UNL1        0.3323
     17 N          13.5116   65.8901    3.4845 N.ar    1  UNL1       -0.2743
     18 C          12.4324   65.3952    4.1206 C.ar    1  UNL1        0.2626
     19 C          11.1372   65.7657    3.6831 C.ar    1  UNL1        0.0795
     20 C          11.0147   66.6085    2.6356 C.ar    1  UNL1        0.0869
     21 O          14.3439   67.1643    1.8764 O.2     1  UNL1       -0.2464
     22 O          12.5677   64.6352    5.0632 O.2     1  UNL1       -0.2670
     23 H          14.4023   65.6412    3.7786 H       1  UNL1        0.1734
     24 O          16.8817   70.9668   -1.7597 O.3     1  UNL1       -0.2703
     25 P          18.2150   71.3988   -2.5507 P.3     1  UNL1        0.2208
     26 O          18.7884   72.6109   -1.9254 O.2     1  UNL1       -0.5170
     27 O          19.2900   70.2013   -2.4839 O.3     1  UNL1       -0.4371
     28 O          17.8521   71.7073   -4.0880 O.3     1  UNL1       -0.2858
     29 C          18.8909   71.1338   -4.8827 C.3     1  UNL1        0.2704
     30 C          19.6929   72.2495   -5.5545 C.3     1  UNL1        0.1967
     31 C          18.7496   73.0891   -6.4214 C.3     1  UNL1        0.1715
     32 C          18.0030   72.1545   -7.3800 C.3     1  UNL1        0.1694
     33 C          17.3270   71.0463   -6.5688 C.3     1  UNL1        0.1761
     34 O          20.2910   73.0772   -4.5553 O.3     1  UNL1       -0.3775
     35 O          19.5065   74.0430   -7.1695 O.3     1  UNL1       -0.3794
     36 O          18.9278   71.5802   -8.3045 O.3     1  UNL1       -0.3794
     37 O          18.3154   70.2867   -5.8746 O.3     1  UNL1       -0.3258
     38 H          20.8693   72.5072   -4.0303 H       1  UNL1        0.2106
     39 H          19.9669   74.5995   -6.5287 H       1  UNL1        0.2105
     40 H          19.3323   72.3128   -8.7874 H       1  UNL1        0.2105
     41 C          16.5499   70.1267   -7.5136 C.3     1  UNL1        0.1693
     42 O          16.0764   70.8823   -8.6298 O.3     1  UNL1       -0.3794
     43 H          15.5941   70.2675   -9.1996 H       1  UNL1        0.2105
@<TRIPOS>BOND
     1    15    16   ar
     2    15    20   ar
     3    15     6    1
     4    16    17   ar
     5    16    21    2
     6    17    18   ar
     7    17    23    1
     8    18    19   ar
     9    18    22    2
    10    19    20   ar
    11     6     7    1
    12     6    11    1
    13     7     8    1
    14     7     9    1
    15     8    13    1
    16     9    10    1
    17     9    12    1
    18    10    11    1
    19    10     5    1
    20    12    14    1
    21     5     4    1
    22     4     1    1
    23     1     2    2
    24     1     3    1
    25     1    24    1
    26    24    25    1
    27    25    26    2
    28    25    27    1
    29    25    28    1
    30    28    29    1
    31    29    30    1
    32    29    37    1
    33    30    31    1
    34    30    34    1
    35    31    32    1
    36    31    35    1
    37    32    33    1
    38    32    36    1
    39    33    41    1
    40    33    37    1
    41    41    42    1
    42    34    38    1
    43    35    39    1
    44    36    40    1
    45    42    43    1
