@<TRIPOS>MOLECULE
GDU
 43 45 0 0 0
SMALL
GASTEIGER

@<TRIPOS>ATOM
      1 P          20.8814   71.6446   -2.2505 P.3     1  UNL1        0.2189
      2 O          21.6469   70.4740   -2.7335 O.2     1  UNL1       -0.5170
      3 O          21.7967   72.9652   -2.3567 O.3     1  UNL1       -0.4371
      4 O          19.5620   71.8323   -3.1510 O.3     1  UNL1       -0.3112
      5 C          18.4986   71.1629   -2.4715 C.3     1  UNL1        0.1811
      6 C          16.9298   70.6393   -5.6640 C.3     1  UNL1        0.2383
      7 C          17.0017   69.2268   -5.0295 C.3     1  UNL1        0.1895
      8 O          15.9092   68.4153   -5.4665 O.3     1  UNL1       -0.3779
      9 C          16.8841   69.5443   -3.5160 C.3     1  UNL1        0.1713
     10 C          17.2990   71.0235   -3.4105 C.3     1  UNL1        0.1764
     11 O          17.6584   71.4653   -4.7310 O.3     1  UNL1       -0.3308
     12 O          15.5387   69.3621   -3.0704 O.3     1  UNL1       -0.3794
     13 H          16.0125   67.5542   -5.0379 H       1  UNL1        0.2106
     14 H          15.3187   68.4320   -3.2165 H       1  UNL1        0.2105
     15 N          17.5766   70.6507   -6.9772 N.ar    1  UNL1       -0.2551
     16 C          16.8387   70.4634   -8.0856 C.ar    1  UNL1        0.3323
     17 N          17.4082   70.4728   -9.3053 N.ar    1  UNL1       -0.2743
     18 C          18.7356   70.6613   -9.4344 C.ar    1  UNL1        0.2626
     19 C          19.5263   70.8541   -8.2752 C.ar    1  UNL1        0.0795
     20 C          18.9290   70.8443   -7.0646 C.ar    1  UNL1        0.0869
     21 O          15.6400   70.2926   -7.9849 O.2     1  UNL1       -0.2464
     22 O          19.2527   70.6652  -10.5377 O.2     1  UNL1       -0.2670
     23 H          16.8597   70.3403  -10.0948 H       1  UNL1        0.1734
     24 O          20.4560   71.4102   -0.7154 O.3     1  UNL1       -0.2703
     25 P          21.8174   71.2277    0.1233 P.3     1  UNL1        0.2208
     26 O          21.6824   70.0716    1.0368 O.2     1  UNL1       -0.5170
     27 O          23.0417   70.9696   -0.8908 O.3     1  UNL1       -0.4371
     28 O          22.1036   72.5595    0.9804 O.3     1  UNL1       -0.2858
     29 C          22.6551   72.1390    2.2289 C.3     1  UNL1        0.2704
     30 C          21.8158   72.7083    3.3738 C.3     1  UNL1        0.1967
     31 C          21.8074   74.2368    3.2736 C.3     1  UNL1        0.1715
     32 C          23.2569   74.7322    3.2185 C.3     1  UNL1        0.1694
     33 C          23.9869   74.0102    2.0831 C.3     1  UNL1        0.1761
     34 O          20.4788   72.2136    3.2791 O.3     1  UNL1       -0.3775
     35 O          21.1518   74.7893    4.4171 O.3     1  UNL1       -0.3794
     36 O          23.9041   74.4554    4.4612 O.3     1  UNL1       -0.3794
     37 O          23.9981   72.6057    2.3345 O.3     1  UNL1       -0.3258
     38 H          20.5330   71.2501    3.3394 H       1  UNL1        0.2106
     39 H          20.2507   74.4424    4.4178 H       1  UNL1        0.2105
     40 H          23.4086   74.9242    5.1454 H       1  UNL1        0.2105
     41 C          25.4263   74.5228    1.9973 C.3     1  UNL1        0.1693
     42 O          26.2727   73.7004    2.8024 O.3     1  UNL1       -0.3794
     43 H          27.1684   74.0557    2.7203 H       1  UNL1        0.2105
@<TRIPOS>BOND
     1    15    16   ar
     2    15    20   ar
     3    15     6    1
     4    16    17   ar
     5    16    21    2
     6    17    18   ar
     7    17    23    1
     8    18    19   ar
     9    18    22    2
    10    19    20   ar
    11     6     7    1
    12     6    11    1
    13     7     8    1
    14     7     9    1
    15     8    13    1
    16     9    10    1
    17     9    12    1
    18    10    11    1
    19    10     5    1
    20    12    14    1
    21     5     4    1
    22     4     1    1
    23     1     2    2
    24     1     3    1
    25     1    24    1
    26    24    25    1
    27    25    26    2
    28    25    27    1
    29    25    28    1
    30    28    29    1
    31    29    30    1
    32    29    37    1
    33    30    31    1
    34    30    34    1
    35    31    32    1
    36    31    35    1
    37    32    33    1
    38    32    36    1
    39    33    41    1
    40    33    37    1
    41    41    42    1
    42    34    38    1
    43    35    39    1
    44    36    40    1
    45    42    43    1
@<TRIPOS>MOLECULE
GDU
 43 45 0 0 0
SMALL
GASTEIGER

@<TRIPOS>ATOM
      1 P          20.4647   71.5748   -2.7748 P.3     1  UNL1        0.2189
      2 O          20.4735   72.0972   -4.1593 O.2     1  UNL1       -0.5170
      3 O          20.5206   72.8047   -1.7369 O.3     1  UNL1       -0.4371
      4 O          19.1205   70.7263   -2.5295 O.3     1  UNL1       -0.3112
      5 C          18.0333   71.6518   -2.5731 C.3     1  UNL1        0.1811
      6 C          16.8457   70.4762   -5.7567 C.3     1  UNL1        0.2383
      7 C          17.2091   69.1868   -4.9766 C.3     1  UNL1        0.1895
      8 O          16.3713   68.0983   -5.3723 O.3     1  UNL1       -0.3779
      9 C          16.9208   69.6020   -3.5104 C.3     1  UNL1        0.1713
     10 C          16.9650   71.1411   -3.5417 C.3     1  UNL1        0.1764
     11 O          17.2949   71.5353   -4.8848 O.3     1  UNL1       -0.3308
     12 O          15.6308   69.1401   -3.1048 O.3     1  UNL1       -0.3794
     13 H          16.6478   67.3305   -4.8529 H       1  UNL1        0.2106
     14 H          15.6479   68.1751   -3.1627 H       1  UNL1        0.2105
     15 N          17.5558   70.5252   -7.0358 N.ar    1  UNL1       -0.2551
     16 C          16.8585   70.5368   -8.1856 C.ar    1  UNL1        0.3323
     17 N          17.4869   70.5851   -9.3750 N.ar    1  UNL1       -0.2743
     18 C          18.8323   70.6127   -9.4325 C.ar    1  UNL1        0.2626
     19 C          19.5800   70.5951   -8.2297 C.ar    1  UNL1        0.0795
     20 C          18.9245   70.5508   -7.0504 C.ar    1  UNL1        0.0869
     21 O          15.6444   70.5127   -8.1495 O.2     1  UNL1       -0.2464
     22 O          19.4022   70.6516  -10.5088 O.2     1  UNL1       -0.2670
     23 H          16.9677   70.5972  -10.1947 H       1  UNL1        0.1734
     24 O          21.7472   70.6273   -2.5516 O.3     1  UNL1       -0.2703
     25 P          23.0058   71.5977   -2.2981 P.3     1  UNL1        0.2208
     26 O          24.2575   70.8740   -2.6119 O.2     1  UNL1       -0.5170
     27 O          22.8835   72.8937   -3.2466 O.3     1  UNL1       -0.4371
     28 O          23.0250   72.0620   -0.7572 O.3     1  UNL1       -0.2858
     29 C          23.1392   70.8770    0.0318 C.3     1  UNL1        0.2704
     30 C          21.9517   70.7880    0.9916 C.3     1  UNL1        0.1967
     31 C          21.9376   72.0328    1.8841 C.3     1  UNL1        0.1715
     32 C          23.3092   72.1707    2.5545 C.3     1  UNL1        0.1694
     33 C          24.3944   72.1568    1.4751 C.3     1  UNL1        0.1761
     34 O          20.7361   70.7195    0.2440 O.3     1  UNL1       -0.3775
     35 O          20.9242   71.8964    2.8825 O.3     1  UNL1       -0.3794
     36 O          23.5118   71.0820    3.4565 O.3     1  UNL1       -0.3794
     37 O          24.3575   70.9161    0.7713 O.3     1  UNL1       -0.3258
     38 H          20.7919   69.9271   -0.3073 H       1  UNL1        0.2106
     39 H          20.0837   71.8008    2.4169 H       1  UNL1        0.2105
     40 H          22.8045   71.1271    4.1130 H       1  UNL1        0.2105
     41 C          25.7663   72.3284    2.1312 C.3     1  UNL1        0.1693
     42 O          26.3491   71.0438    2.3576 O.3     1  UNL1       -0.3794
     43 H          27.2103   71.1960    2.7704 H       1  UNL1        0.2105
@<TRIPOS>BOND
     1    15    16   ar
     2    15    20   ar
     3    15     6    1
     4    16    17   ar
     5    16    21    2
     6    17    18   ar
     7    17    23    1
     8    18    19   ar
     9    18    22    2
    10    19    20   ar
    11     6     7    1
    12     6    11    1
    13     7     8    1
    14     7     9    1
    15     8    13    1
    16     9    10    1
    17     9    12    1
    18    10    11    1
    19    10     5    1
    20    12    14    1
    21     5     4    1
    22     4     1    1
    23     1     2    2
    24     1     3    1
    25     1    24    1
    26    24    25    1
    27    25    26    2
    28    25    27    1
    29    25    28    1
    30    28    29    1
    31    29    30    1
    32    29    37    1
    33    30    31    1
    34    30    34    1
    35    31    32    1
    36    31    35    1
    37    32    33    1
    38    32    36    1
    39    33    41    1
    40    33    37    1
    41    41    42    1
    42    34    38    1
    43    35    39    1
    44    36    40    1
    45    42    43    1
@<TRIPOS>MOLECULE
GDU
 43 45 0 0 0
SMALL
GASTEIGER

@<TRIPOS>ATOM
      1 P          20.6429   71.0477   -3.0483 P.3     1  UNL1        0.2189
      2 O          21.2329   70.7341   -4.3685 O.2     1  UNL1       -0.5170
      3 O          20.2676   72.6124   -2.9862 O.3     1  UNL1       -0.4371
      4 O          19.3139   70.1681   -2.8314 O.3     1  UNL1       -0.3112
      5 C          18.2727   71.0750   -2.4655 C.3     1  UNL1        0.1811
      6 C          16.8306   70.5823   -5.7220 C.3     1  UNL1        0.2383
      7 C          16.8769   69.1639   -5.0983 C.3     1  UNL1        0.1895
      8 O          15.8021   68.3573   -5.5857 O.3     1  UNL1       -0.3779
      9 C          16.6999   69.4673   -3.5877 C.3     1  UNL1        0.1713
     10 C          17.1109   70.9453   -3.4522 C.3     1  UNL1        0.1764
     11 O          17.5222   71.3990   -4.7534 O.3     1  UNL1       -0.3308
     12 O          15.3379   69.2821   -3.1972 O.3     1  UNL1       -0.3794
     13 H          15.8882   67.4922   -5.1614 H       1  UNL1        0.2106
     14 H          15.1235   68.3536   -3.3606 H       1  UNL1        0.2105
     15 N          17.5286   70.6055   -7.0085 N.ar    1  UNL1       -0.2551
     16 C          16.8264   70.4982   -8.1503 C.ar    1  UNL1        0.3323
     17 N          17.4435   70.5202   -9.3463 N.ar    1  UNL1       -0.2743
     18 C          18.7830   70.6409   -9.4182 C.ar    1  UNL1        0.2626
     19 C          19.5363   70.7490   -8.2236 C.ar    1  UNL1        0.0795
     20 C          18.8918   70.7284   -7.0376 C.ar    1  UNL1        0.0869
     21 O          15.6173   70.3893   -8.1013 O.2     1  UNL1       -0.2464
     22 O          19.3430   70.6561  -10.5003 O.2     1  UNL1       -0.2670
     23 H          16.9205   70.4460  -10.1604 H       1  UNL1        0.1734
     24 O          21.7086   70.7066   -1.8906 O.3     1  UNL1       -0.2703
     25 P          23.0241   71.5823   -2.1945 P.3     1  UNL1        0.2208
     26 O          23.5648   72.1168   -0.9252 O.2     1  UNL1       -0.5170
     27 O          24.1346   70.6545   -2.9018 O.3     1  UNL1       -0.4371
     28 O          22.6438   72.8022   -3.1729 O.3     1  UNL1       -0.2858
     29 C          23.8187   73.1149   -3.9224 C.3     1  UNL1        0.2704
     30 C          24.2031   74.5754   -3.6807 C.3     1  UNL1        0.1967
     31 C          23.0369   75.4744   -4.1030 C.3     1  UNL1        0.1715
     32 C          22.6518   75.1316   -5.5465 C.3     1  UNL1        0.1694
     33 C          22.3829   73.6280   -5.6462 C.3     1  UNL1        0.1761
     34 O          24.4840   74.7732   -2.2939 O.3     1  UNL1       -0.3775
     35 O          23.4335   76.8450   -4.0220 O.3     1  UNL1       -0.3794
     36 O          23.7201   75.4900   -6.4241 O.3     1  UNL1       -0.3794
     37 O          23.5655   72.9041   -5.3095 O.3     1  UNL1       -0.3258
     38 H          25.2174   74.1840   -2.0710 H       1  UNL1        0.2106
     39 H          23.6774   77.0119   -3.1028 H       1  UNL1        0.2105
     40 H          23.8576   76.4410   -6.3238 H       1  UNL1        0.2105
     41 C          21.9639   73.2803   -7.0765 C.3     1  UNL1        0.1693
     42 O          23.1295   73.0774   -7.8773 O.3     1  UNL1       -0.3794
     43 H          22.8226   72.8603   -8.7683 H       1  UNL1        0.2105
@<TRIPOS>BOND
     1    15    16   ar
     2    15    20   ar
     3    15     6    1
     4    16    17   ar
     5    16    21    2
     6    17    18   ar
     7    17    23    1
     8    18    19   ar
     9    18    22    2
    10    19    20   ar
    11     6     7    1
    12     6    11    1
    13     7     8    1
    14     7     9    1
    15     8    13    1
    16     9    10    1
    17     9    12    1
    18    10    11    1
    19    10     5    1
    20    12    14    1
    21     5     4    1
    22     4     1    1
    23     1     2    2
    24     1     3    1
    25     1    24    1
    26    24    25    1
    27    25    26    2
    28    25    27    1
    29    25    28    1
    30    28    29    1
    31    29    30    1
    32    29    37    1
    33    30    31    1
    34    30    34    1
    35    31    32    1
    36    31    35    1
    37    32    33    1
    38    32    36    1
    39    33    41    1
    40    33    37    1
    41    41    42    1
    42    34    38    1
    43    35    39    1
    44    36    40    1
    45    42    43    1
@<TRIPOS>MOLECULE
GDU
 43 45 0 0 0
SMALL
GASTEIGER

@<TRIPOS>ATOM
      1 P          21.5601   71.3659   -1.5670 P.3     1  UNL1        0.2189
      2 O          21.3970   72.8347   -1.6416 O.2     1  UNL1       -0.5170
      3 O          20.3474   70.7338   -0.7169 O.3     1  UNL1       -0.4371
      4 O          21.5533   70.7486   -3.0522 O.3     1  UNL1       -0.3112
      5 C          20.5819   71.4816   -3.8004 C.3     1  UNL1        0.1811
      6 C          17.2776   70.0650   -3.7579 C.3     1  UNL1        0.2383
      7 C          17.2012   71.1992   -4.8118 C.3     1  UNL1        0.1895
      8 O          16.2545   70.8818   -5.8347 O.3     1  UNL1       -0.3779
      9 C          18.6445   71.2133   -5.3791 C.3     1  UNL1        0.1713
     10 C          19.4842   70.5316   -4.2828 C.3     1  UNL1        0.1764
     11 O          18.5980   70.2167   -3.1949 O.3     1  UNL1       -0.3308
     12 O          18.7087   70.4739   -6.6002 O.3     1  UNL1       -0.3794
     13 H          16.2550   71.6241   -6.4551 H       1  UNL1        0.2106
     14 H          18.1185   70.9151   -7.2261 H       1  UNL1        0.2105
     15 N          16.2536   70.2456   -2.7275 N.ar    1  UNL1       -0.2551
     16 C          16.0224   69.2640   -1.8379 C.ar    1  UNL1        0.3323
     17 N          15.0891   69.4061   -0.8784 N.ar    1  UNL1       -0.2743
     18 C          14.3610   70.5366   -0.8001 C.ar    1  UNL1        0.2626
     19 C          14.5897   71.5767   -1.7340 C.ar    1  UNL1        0.0795
     20 C          15.5347   71.4098   -2.6835 C.ar    1  UNL1        0.0869
     21 O          16.6716   68.2387   -1.8957 O.2     1  UNL1       -0.2464
     22 O          13.5127   70.6642    0.0651 O.2     1  UNL1       -0.2670
     23 H          14.9384   68.6891   -0.2420 H       1  UNL1        0.1734
     24 O          22.9573   71.0180   -0.8463 O.3     1  UNL1       -0.2703
     25 P          22.6740   71.0023    0.7378 P.3     1  UNL1        0.2208
     26 O          21.5769   70.0545    1.0331 O.2     1  UNL1       -0.5170
     27 O          24.0060   70.5399    1.5164 O.3     1  UNL1       -0.4371
     28 O          22.2548   72.4782    1.2238 O.3     1  UNL1       -0.2858
     29 C          21.1655   72.3216    2.1341 C.3     1  UNL1        0.2704
     30 C          20.1497   73.4428    1.9102 C.3     1  UNL1        0.1967
     31 C          20.8420   74.7926    2.1224 C.3     1  UNL1        0.1715
     32 C          21.5145   74.7872    3.4998 C.3     1  UNL1        0.1694
     33 C          22.4291   73.5641    3.6024 C.3     1  UNL1        0.1761
     34 O          19.6409   73.3685    0.5772 O.3     1  UNL1       -0.3775
     35 O          19.8749   75.8431    2.0617 O.3     1  UNL1       -0.3794
     36 O          20.5156   74.7297    4.5190 O.3     1  UNL1       -0.3794
     37 O          21.6555   72.3723    3.4720 O.3     1  UNL1       -0.3258
     38 H          19.2212   72.5021    0.4867 H       1  UNL1        0.2106
     39 H          19.4706   75.8010    1.1859 H       1  UNL1        0.2105
     40 H          19.9614   75.5138    4.4124 H       1  UNL1        0.2105
     41 C          23.1321   73.5676    4.9617 C.3     1  UNL1        0.1693
     42 O          22.3469   72.8365    5.9051 O.3     1  UNL1       -0.3794
     43 H          22.8239   72.8621    6.7459 H       1  UNL1        0.2105
@<TRIPOS>BOND
     1    15    16   ar
     2    15    20   ar
     3    15     6    1
     4    16    17   ar
     5    16    21    2
     6    17    18   ar
     7    17    23    1
     8    18    19   ar
     9    18    22    2
    10    19    20   ar
    11     6     7    1
    12     6    11    1
    13     7     8    1
    14     7     9    1
    15     8    13    1
    16     9    10    1
    17     9    12    1
    18    10    11    1
    19    10     5    1
    20    12    14    1
    21     5     4    1
    22     4     1    1
    23     1     2    2
    24     1     3    1
    25     1    24    1
    26    24    25    1
    27    25    26    2
    28    25    27    1
    29    25    28    1
    30    28    29    1
    31    29    30    1
    32    29    37    1
    33    30    31    1
    34    30    34    1
    35    31    32    1
    36    31    35    1
    37    32    33    1
    38    32    36    1
    39    33    41    1
    40    33    37    1
    41    41    42    1
    42    34    38    1
    43    35    39    1
    44    36    40    1
    45    42    43    1
@<TRIPOS>MOLECULE
GDU
 43 45 0 0 0
SMALL
GASTEIGER

@<TRIPOS>ATOM
      1 P          22.5767   72.1514   -3.2018 P.3     1  UNL1        0.2189
      2 O          23.2855   72.4211   -4.4724 O.2     1  UNL1       -0.5170
      3 O          23.0116   70.7059   -2.6411 O.3     1  UNL1       -0.4371
      4 O          22.9582   73.2822   -2.1235 O.3     1  UNL1       -0.3112
      5 C          21.7584   73.6025   -1.4176 C.3     1  UNL1        0.1811
      6 C          23.0690   72.2400    1.6407 C.3     1  UNL1        0.2383
      7 C          22.3630   73.5515    2.0701 C.3     1  UNL1        0.1895
      8 O          21.8459   73.4410    3.3981 O.3     1  UNL1       -0.3779
      9 C          21.2124   73.6549    1.0353 C.3     1  UNL1        0.1713
     10 C          21.6816   72.7715   -0.1355 C.3     1  UNL1        0.1764
     11 O          22.9867   72.2692    0.1999 O.3     1  UNL1       -0.3308
     12 O          19.9944   73.1554    1.5910 O.3     1  UNL1       -0.3794
     13 H          21.4216   74.2859    3.6033 H       1  UNL1        0.2106
     14 H          19.7852   73.7121    2.3532 H       1  UNL1        0.2105
     15 N          24.4661   72.2368    2.0776 N.ar    1  UNL1       -0.2551
     16 C          25.1502   71.0798    2.1160 C.ar    1  UNL1        0.3323
     17 N          26.4368   71.0499    2.5104 N.ar    1  UNL1       -0.2743
     18 C          27.0599   72.1839    2.8845 C.ar    1  UNL1        0.2626
     19 C          26.3501   73.4093    2.8546 C.ar    1  UNL1        0.0795
     20 C          25.0619   73.4115    2.4508 C.ar    1  UNL1        0.0869
     21 O          24.6017   70.0487    1.7811 O.2     1  UNL1       -0.2464
     22 O          28.2231   72.1572    3.2462 O.2     1  UNL1       -0.2670
     23 H          26.9166   70.2065    2.5280 H       1  UNL1        0.1734
     24 O          20.9876   72.1692   -3.4606 O.3     1  UNL1       -0.2703
     25 P          20.4857   70.6419   -3.3865 P.3     1  UNL1        0.2208
     26 O          21.6409   69.7342   -3.5621 O.2     1  UNL1       -0.5170
     27 O          19.8036   70.3704   -1.9530 O.3     1  UNL1       -0.4371
     28 O          19.4086   70.3728   -4.5516 O.3     1  UNL1       -0.2858
     29 C          18.1896   70.9937   -4.1412 C.3     1  UNL1        0.2704
     30 C          17.0594   69.9635   -4.1678 C.3     1  UNL1        0.1967
     31 C          16.9294   69.4024   -5.5872 C.3     1  UNL1        0.1715
     32 C          16.7684   70.5727   -6.5639 C.3     1  UNL1        0.1694
     33 C          17.9227   71.5564   -6.3568 C.3     1  UNL1        0.1761
     34 O          17.3568   68.9031   -3.2577 O.3     1  UNL1       -0.3775
     35 O          15.7853   68.5494   -5.6633 O.3     1  UNL1       -0.3794
     36 O          15.5242   71.2305   -6.3204 O.3     1  UNL1       -0.3794
     37 O          17.8850   72.0695   -5.0259 O.3     1  UNL1       -0.3258
     38 H          17.4367   69.3024   -2.3807 H       1  UNL1        0.2106
     39 H          15.9243   67.8372   -5.0263 H       1  UNL1        0.2105
     40 H          14.8290   70.5737   -6.4565 H       1  UNL1        0.2105
     41 C          17.7902   72.7122   -7.3511 C.3     1  UNL1        0.1693
     42 O          17.2617   72.2206   -8.5839 O.3     1  UNL1       -0.3794
     43 H          17.1934   72.9782   -9.1811 H       1  UNL1        0.2105
@<TRIPOS>BOND
     1    15    16   ar
     2    15    20   ar
     3    15     6    1
     4    16    17   ar
     5    16    21    2
     6    17    18   ar
     7    17    23    1
     8    18    19   ar
     9    18    22    2
    10    19    20   ar
    11     6     7    1
    12     6    11    1
    13     7     8    1
    14     7     9    1
    15     8    13    1
    16     9    10    1
    17     9    12    1
    18    10    11    1
    19    10     5    1
    20    12    14    1
    21     5     4    1
    22     4     1    1
    23     1     2    2
    24     1     3    1
    25     1    24    1
    26    24    25    1
    27    25    26    2
    28    25    27    1
    29    25    28    1
    30    28    29    1
    31    29    30    1
    32    29    37    1
    33    30    31    1
    34    30    34    1
    35    31    32    1
    36    31    35    1
    37    32    33    1
    38    32    36    1
    39    33    41    1
    40    33    37    1
    41    41    42    1
    42    34    38    1
    43    35    39    1
    44    36    40    1
    45    42    43    1
@<TRIPOS>MOLECULE
GDU
 43 45 0 0 0
SMALL
GASTEIGER

@<TRIPOS>ATOM
      1 P          23.4567   72.1167   -3.2834 P.3     1  UNL1        0.2189
      2 O          24.2022   72.9173   -4.2799 O.2     1  UNL1       -0.5170
      3 O          24.2503   70.7457   -2.9945 O.3     1  UNL1       -0.4371
      4 O          23.3174   72.9542   -1.9174 O.3     1  UNL1       -0.3112
      5 C          21.9506   72.8611   -1.5125 C.3     1  UNL1        0.1811
      6 C          23.2619   72.0617    1.7384 C.3     1  UNL1        0.2383
      7 C          22.5598   73.4307    1.9279 C.3     1  UNL1        0.1895
      8 O          22.0442   73.5600    3.2548 O.3     1  UNL1       -0.3779
      9 C          21.4081   73.3513    0.8923 C.3     1  UNL1        0.1713
     10 C          21.8735   72.2720   -0.1029 C.3     1  UNL1        0.1764
     11 O          23.1778   71.8340    0.3156 O.3     1  UNL1       -0.3308
     12 O          20.1896   72.9621    1.5291 O.3     1  UNL1       -0.3794
     13 H          21.6224   74.4290    3.3066 H       1  UNL1        0.2106
     14 H          19.9828   73.6462    2.1801 H       1  UNL1        0.2105
     15 N          24.6596   72.1326    2.1677 N.ar    1  UNL1       -0.2551
     16 C          25.3844   71.0044    2.2681 C.ar    1  UNL1        0.3323
     17 N          26.6725   71.0423    2.6571 N.ar    1  UNL1       -0.2743
     18 C          27.2561   72.2170    2.9631 C.ar    1  UNL1        0.2626
     19 C          26.5031   73.4129    2.8675 C.ar    1  UNL1        0.0795
     20 C          25.2144   73.3468    2.4708 C.ar    1  UNL1        0.0869
     21 O          24.8718   69.9373    1.9949 O.2     1  UNL1       -0.2464
     22 O          28.4205   72.2518    3.3199 O.2     1  UNL1       -0.2670
     23 H          27.1819   70.2187    2.7198 H       1  UNL1        0.1734
     24 O          21.9915   71.7763   -3.8576 O.3     1  UNL1       -0.2703
     25 P          21.7873   72.6742   -5.1774 P.3     1  UNL1        0.2208
     26 O          21.9428   74.1040   -4.8300 O.2     1  UNL1       -0.5170
     27 O          22.8897   72.2673   -6.2789 O.3     1  UNL1       -0.4371
     28 O          20.3146   72.4234   -5.7759 O.3     1  UNL1       -0.2858
     29 C          20.2860   71.0795   -6.2582 C.3     1  UNL1        0.2704
     30 C          19.8107   71.0703   -7.7120 C.3     1  UNL1        0.1967
     31 C          18.4166   71.7008   -7.7848 C.3     1  UNL1        0.1715
     32 C          17.4987   70.9761   -6.7939 C.3     1  UNL1        0.1694
     33 C          18.1490   70.9943   -5.4083 C.3     1  UNL1        0.1761
     34 O          20.7203   71.8219   -8.5176 O.3     1  UNL1       -0.3775
     35 O          17.8978   71.5670   -9.1097 O.3     1  UNL1       -0.3794
     36 O          17.3071   69.6263   -7.2194 O.3     1  UNL1       -0.3794
     37 O          19.3983   70.3065   -5.4539 O.3     1  UNL1       -0.3258
     38 H          21.5838   71.3946   -8.4362 H       1  UNL1        0.2106
     39 H          18.5108   72.0257   -9.6980 H       1  UNL1        0.2105
     40 H          16.9021   69.6639   -8.0957 H       1  UNL1        0.2105
     41 C          17.2243   70.3029   -4.4038 C.3     1  UNL1        0.1693
     42 O          17.3992   68.8878   -4.4924 O.3     1  UNL1       -0.3794
     43 H          16.8009   68.4907   -3.8446 H       1  UNL1        0.2105
@<TRIPOS>BOND
     1    15    16   ar
     2    15    20   ar
     3    15     6    1
     4    16    17   ar
     5    16    21    2
     6    17    18   ar
     7    17    23    1
     8    18    19   ar
     9    18    22    2
    10    19    20   ar
    11     6     7    1
    12     6    11    1
    13     7     8    1
    14     7     9    1
    15     8    13    1
    16     9    10    1
    17     9    12    1
    18    10    11    1
    19    10     5    1
    20    12    14    1
    21     5     4    1
    22     4     1    1
    23     1     2    2
    24     1     3    1
    25     1    24    1
    26    24    25    1
    27    25    26    2
    28    25    27    1
    29    25    28    1
    30    28    29    1
    31    29    30    1
    32    29    37    1
    33    30    31    1
    34    30    34    1
    35    31    32    1
    36    31    35    1
    37    32    33    1
    38    32    36    1
    39    33    41    1
    40    33    37    1
    41    41    42    1
    42    34    38    1
    43    35    39    1
    44    36    40    1
    45    42    43    1
@<TRIPOS>MOLECULE
GDU
 43 45 0 0 0
SMALL
GASTEIGER

@<TRIPOS>ATOM
      1 P          20.9259   71.3138   -0.1958 P.3     1  UNL1        0.2189
      2 O          20.1949   72.0323    0.8714 O.2     1  UNL1       -0.5170
      3 O          21.9284   70.2427    0.4680 O.3     1  UNL1       -0.4371
      4 O          19.8763   70.5498   -1.1451 O.3     1  UNL1       -0.3112
      5 C          19.9449   71.1769   -2.4268 C.3     1  UNL1        0.1811
      6 C          17.7094   70.7159   -5.2048 C.3     1  UNL1        0.2383
      7 C          17.7837   69.3224   -4.5297 C.3     1  UNL1        0.1895
      8 O          16.5560   68.6093   -4.6956 O.3     1  UNL1       -0.3779
      9 C          18.0105   69.6942   -3.0412 C.3     1  UNL1        0.1713
     10 C          18.5695   71.1282   -3.0946 C.3     1  UNL1        0.1764
     11 O          18.6864   71.4935   -4.4807 O.3     1  UNL1       -0.3308
     12 O          16.7755   69.6580   -2.3234 O.3     1  UNL1       -0.3794
     13 H          16.6679   67.7552   -4.2553 H       1  UNL1        0.2106
     14 H          16.4474   68.7501   -2.3761 H       1  UNL1        0.2105
     15 N          18.0691   70.6252   -6.6208 N.ar    1  UNL1       -0.2551
     16 C          17.1047   70.4720   -7.5453 C.ar    1  UNL1        0.3323
     17 N          17.4082   70.3895   -8.8541 N.ar    1  UNL1       -0.2743
     18 C          18.6912   70.4496   -9.2597 C.ar    1  UNL1        0.2626
     19 C          19.7181   70.6050   -8.2965 C.ar    1  UNL1        0.0795
     20 C          19.3856   70.6894   -6.9909 C.ar    1  UNL1        0.0869
     21 O          15.9428   70.4166   -7.1947 O.2     1  UNL1       -0.2464
     22 O          18.9673   70.3702  -10.4437 O.2     1  UNL1       -0.2670
     23 H          16.6991   70.2833   -9.5080 H       1  UNL1        0.1734
     24 O          21.7721   72.3691   -1.0693 O.3     1  UNL1       -0.2703
     25 P          23.2323   72.4647   -0.3994 P.3     1  UNL1        0.2208
     26 O          23.0993   72.8695    1.0174 O.2     1  UNL1       -0.5170
     27 O          23.9548   71.0275   -0.4808 O.3     1  UNL1       -0.4371
     28 O          24.1159   73.5536   -1.1891 O.3     1  UNL1       -0.2858
     29 C          23.2877   74.0903   -2.2215 C.3     1  UNL1        0.2704
     30 C          24.0809   74.1569   -3.5275 C.3     1  UNL1        0.1967
     31 C          25.3180   75.0350   -3.3153 C.3     1  UNL1        0.1715
     32 C          24.8676   76.3891   -2.7558 C.3     1  UNL1        0.1694
     33 C          24.0158   76.1530   -1.5062 C.3     1  UNL1        0.1761
     34 O          24.4858   72.8410   -3.9092 O.3     1  UNL1       -0.3775
     35 O          25.9899   75.2272   -4.5619 O.3     1  UNL1       -0.3794
     36 O          24.0985   77.0810   -3.7405 O.3     1  UNL1       -0.3794
     37 O          22.8555   75.3972   -1.8504 O.3     1  UNL1       -0.3258
     38 H          23.6777   72.3229   -4.0246 H       1  UNL1        0.2106
     39 H          26.2434   74.3519   -4.8811 H       1  UNL1        0.2105
     40 H          24.6715   77.2022   -4.5089 H       1  UNL1        0.2105
     41 C          23.5892   77.5006   -0.9197 C.3     1  UNL1        0.1693
     42 O          22.8234   77.2820    0.2664 O.3     1  UNL1       -0.3794
     43 H          22.5755   78.1536    0.6041 H       1  UNL1        0.2105
@<TRIPOS>BOND
     1    15    16   ar
     2    15    20   ar
     3    15     6    1
     4    16    17   ar
     5    16    21    2
     6    17    18   ar
     7    17    23    1
     8    18    19   ar
     9    18    22    2
    10    19    20   ar
    11     6     7    1
    12     6    11    1
    13     7     8    1
    14     7     9    1
    15     8    13    1
    16     9    10    1
    17     9    12    1
    18    10    11    1
    19    10     5    1
    20    12    14    1
    21     5     4    1
    22     4     1    1
    23     1     2    2
    24     1     3    1
    25     1    24    1
    26    24    25    1
    27    25    26    2
    28    25    27    1
    29    25    28    1
    30    28    29    1
    31    29    30    1
    32    29    37    1
    33    30    31    1
    34    30    34    1
    35    31    32    1
    36    31    35    1
    37    32    33    1
    38    32    36    1
    39    33    41    1
    40    33    37    1
    41    41    42    1
    42    34    38    1
    43    35    39    1
    44    36    40    1
    45    42    43    1
@<TRIPOS>MOLECULE
GDU
 43 45 0 0 0
SMALL
GASTEIGER

@<TRIPOS>ATOM
      1 P          23.0808   71.9860   -3.6528 P.3     1  UNL1        0.2189
      2 O          24.0573   70.9525   -3.2434 O.2     1  UNL1       -0.5170
      3 O          21.5978   71.3586   -3.6385 O.3     1  UNL1       -0.4371
      4 O          23.1492   73.2249   -2.6294 O.3     1  UNL1       -0.3112
      5 C          22.1520   72.9940   -1.6329 C.3     1  UNL1        0.1811
      6 C          23.9961   71.7853    1.2071 C.3     1  UNL1        0.2383
      7 C          22.5849   72.1013    1.7653 C.3     1  UNL1        0.1895
      8 O          22.2589   71.2300    2.8506 O.3     1  UNL1       -0.3779
      9 C          21.6794   71.8190    0.5382 C.3     1  UNL1        0.1713
     10 C          22.6375   71.9146   -0.6637 C.3     1  UNL1        0.1764
     11 O          23.9355   72.2647   -0.1530 O.3     1  UNL1       -0.3308
     12 O          21.1085   70.5122    0.6287 O.3     1  UNL1       -0.3794
     13 H          21.3734   71.4779    3.1510 H       1  UNL1        0.2106
     14 H          20.5683   70.4975    1.4304 H       1  UNL1        0.2105
     15 N          25.0244   72.5036    1.9619 N.ar    1  UNL1       -0.2551
     16 C          26.0454   71.8229    2.5119 C.ar    1  UNL1        0.3323
     17 N          27.0057   72.4597    3.2077 N.ar    1  UNL1       -0.2743
     18 C          26.9533   73.7954    3.3732 C.ar    1  UNL1        0.2626
     19 C          25.8806   74.5247    2.8043 C.ar    1  UNL1        0.0795
     20 C          24.9331   73.8617    2.1077 C.ar    1  UNL1        0.0869
     21 O          26.1063   70.6178    2.3708 O.2     1  UNL1       -0.2464
     22 O          27.8196   74.3720    4.0068 O.2     1  UNL1       -0.2670
     23 H          27.7377   71.9531    3.5942 H       1  UNL1        0.1734
     24 O          23.4319   72.4960   -5.1391 O.3     1  UNL1       -0.2703
     25 P          22.0803   73.1206   -5.7496 P.3     1  UNL1        0.2208
     26 O          21.5189   74.1055   -4.7988 O.2     1  UNL1       -0.5170
     27 O          22.4103   73.8517   -7.1463 O.3     1  UNL1       -0.4371
     28 O          21.0100   71.9452   -6.0004 O.3     1  UNL1       -0.2858
     29 C          19.7925   72.5720   -6.4057 C.3     1  UNL1        0.2704
     30 C          18.6629   72.1449   -5.4671 C.3     1  UNL1        0.1967
     31 C          18.5271   70.6198   -5.5121 C.3     1  UNL1        0.1715
     32 C          18.3608   70.1855   -6.9727 C.3     1  UNL1        0.1694
     33 C          19.5154   70.7601   -7.7973 C.3     1  UNL1        0.1761
     34 O          18.9651   72.5609   -4.1341 O.3     1  UNL1       -0.3775
     35 O          17.3832   70.2171   -4.7558 O.3     1  UNL1       -0.3794
     36 O          17.1173   70.6738   -7.4778 O.3     1  UNL1       -0.3794
     37 O          19.4832   72.1856   -7.7427 O.3     1  UNL1       -0.3258
     38 H          19.0486   73.5239   -4.1546 H       1  UNL1        0.2106
     39 H          17.5255   70.5204   -3.8503 H       1  UNL1        0.2105
     40 H          16.4219   70.2918   -6.9265 H       1  UNL1        0.2105
     41 C          19.3777   70.3039   -9.2516 C.3     1  UNL1        0.1693
     42 O          18.5326   71.2141   -9.9575 O.3     1  UNL1       -0.3794
     43 H          18.4726   70.8920  -10.8674 H       1  UNL1        0.2105
@<TRIPOS>BOND
     1    15    16   ar
     2    15    20   ar
     3    15     6    1
     4    16    17   ar
     5    16    21    2
     6    17    18   ar
     7    17    23    1
     8    18    19   ar
     9    18    22    2
    10    19    20   ar
    11     6     7    1
    12     6    11    1
    13     7     8    1
    14     7     9    1
    15     8    13    1
    16     9    10    1
    17     9    12    1
    18    10    11    1
    19    10     5    1
    20    12    14    1
    21     5     4    1
    22     4     1    1
    23     1     2    2
    24     1     3    1
    25     1    24    1
    26    24    25    1
    27    25    26    2
    28    25    27    1
    29    25    28    1
    30    28    29    1
    31    29    30    1
    32    29    37    1
    33    30    31    1
    34    30    34    1
    35    31    32    1
    36    31    35    1
    37    32    33    1
    38    32    36    1
    39    33    41    1
    40    33    37    1
    41    41    42    1
    42    34    38    1
    43    35    39    1
    44    36    40    1
    45    42    43    1
@<TRIPOS>MOLECULE
GDU
 43 45 0 0 0
SMALL
GASTEIGER

@<TRIPOS>ATOM
      1 P          20.7829   71.2756   -2.2662 P.3     1  UNL1        0.2189
      2 O          20.3584   70.6715   -0.9838 O.2     1  UNL1       -0.5170
      3 O          21.7189   70.2367   -3.0648 O.3     1  UNL1       -0.4371
      4 O          19.4860   71.6204   -3.1528 O.3     1  UNL1       -0.3112
      5 C          18.3526   71.1251   -2.4382 C.3     1  UNL1        0.1811
      6 C          16.8652   70.5569   -5.6618 C.3     1  UNL1        0.2383
      7 C          16.9673   69.1467   -5.0263 C.3     1  UNL1        0.1895
      8 O          15.9090   68.3026   -5.4856 O.3     1  UNL1       -0.3779
      9 C          16.8096   69.4590   -3.5154 C.3     1  UNL1        0.1713
     10 C          17.1770   70.9501   -3.4011 C.3     1  UNL1        0.1764
     11 O          17.5493   71.4038   -4.7140 O.3     1  UNL1       -0.3308
     12 O          15.4616   69.2355   -3.0971 O.3     1  UNL1       -0.3794
     13 H          16.0299   67.4447   -5.0553 H       1  UNL1        0.2106
     14 H          15.2731   68.2993   -3.2479 H       1  UNL1        0.2105
     15 N          17.5376   70.5892   -6.9616 N.ar    1  UNL1       -0.2551
     16 C          16.8130   70.4893   -8.0900 C.ar    1  UNL1        0.3323
     17 N          17.4063   70.5199   -9.2978 N.ar    1  UNL1       -0.2743
     18 C          18.7442   70.6417   -9.3953 C.ar    1  UNL1        0.2626
     19 C          19.5208   70.7421   -8.2151 C.ar    1  UNL1        0.0795
     20 C          18.8999   70.7131   -7.0167 C.ar    1  UNL1        0.0869
     21 O          15.6052   70.3794   -8.0179 O.2     1  UNL1       -0.2464
     22 O          19.2826   70.6646  -10.4881 O.2     1  UNL1       -0.2670
     23 H          16.8674   70.4508  -10.1019 H       1  UNL1        0.1734
     24 O          21.6098   72.6260   -1.9745 O.3     1  UNL1       -0.2703
     25 P          22.5772   72.3202   -0.7253 P.3     1  UNL1        0.2208
     26 O          23.1033   70.9417   -0.8351 O.2     1  UNL1       -0.5170
     27 O          23.8039   73.3640   -0.7288 O.3     1  UNL1       -0.4371
     28 O          21.7490   72.4719    0.6461 O.3     1  UNL1       -0.2858
     29 C          22.1647   73.6984    1.2484 C.3     1  UNL1        0.2704
     30 C          22.7644   73.4115    2.6259 C.3     1  UNL1        0.1967
     31 C          21.7119   72.7130    3.4923 C.3     1  UNL1        0.1715
     32 C          20.4387   73.5665    3.5001 C.3     1  UNL1        0.1694
     33 C          20.0140   73.8401    2.0552 C.3     1  UNL1        0.1761
     34 O          23.9073   72.5660    2.4837 O.3     1  UNL1       -0.3775
     35 O          22.2055   72.5705    4.8259 O.3     1  UNL1       -0.3794
     36 O          20.6956   74.8016    4.1697 O.3     1  UNL1       -0.3794
     37 O          21.0409   74.5657    1.3808 O.3     1  UNL1       -0.3258
     38 H          24.5386   73.0416    1.9268 H       1  UNL1        0.2106
     39 H          23.0099   72.0392    4.7713 H       1  UNL1        0.2105
     40 H          20.9645   74.5808    5.0710 H       1  UNL1        0.2105
     41 C          18.7238   74.6632    2.0518 C.3     1  UNL1        0.1693
     42 O          18.2206   74.7529    0.7177 O.3     1  UNL1       -0.3794
     43 H          17.4091   75.2773    0.7594 H       1  UNL1        0.2105
@<TRIPOS>BOND
     1    15    16   ar
     2    15    20   ar
     3    15     6    1
     4    16    17   ar
     5    16    21    2
     6    17    18   ar
     7    17    23    1
     8    18    19   ar
     9    18    22    2
    10    19    20   ar
    11     6     7    1
    12     6    11    1
    13     7     8    1
    14     7     9    1
    15     8    13    1
    16     9    10    1
    17     9    12    1
    18    10    11    1
    19    10     5    1
    20    12    14    1
    21     5     4    1
    22     4     1    1
    23     1     2    2
    24     1     3    1
    25     1    24    1
    26    24    25    1
    27    25    26    2
    28    25    27    1
    29    25    28    1
    30    28    29    1
    31    29    30    1
    32    29    37    1
    33    30    31    1
    34    30    34    1
    35    31    32    1
    36    31    35    1
    37    32    33    1
    38    32    36    1
    39    33    41    1
    40    33    37    1
    41    41    42    1
    42    34    38    1
    43    35    39    1
    44    36    40    1
    45    42    43    1
@<TRIPOS>MOLECULE
GDU
 43 45 0 0 0
SMALL
GASTEIGER

@<TRIPOS>ATOM
      1 P          21.9302   71.3657   -0.7324 P.3     1  UNL1        0.2189
      2 O          21.7504   72.8012   -0.4214 O.2     1  UNL1       -0.5170
      3 O          21.0573   70.4814    0.2918 O.3     1  UNL1       -0.4371
      4 O          21.4449   71.0776   -2.2385 O.3     1  UNL1       -0.3112
      5 C          20.7313   72.2366   -2.6721 C.3     1  UNL1        0.1811
      6 C          18.3304   71.0292   -5.0607 C.3     1  UNL1        0.2383
      7 C          18.7922   69.7611   -4.2981 C.3     1  UNL1        0.1895
      8 O          17.7413   68.7944   -4.2328 O.3     1  UNL1       -0.3779
      9 C          19.1115   70.3270   -2.8899 C.3     1  UNL1        0.1713
     10 C          19.3295   71.8321   -3.1321 C.3     1  UNL1        0.1764
     11 O          19.1926   72.0654   -4.5446 O.3     1  UNL1       -0.3308
     12 O          18.0121   70.1102   -2.0033 O.3     1  UNL1       -0.3794
     13 H          18.0918   68.0337   -3.7487 H       1  UNL1        0.2106
     14 H          17.8885   69.1535   -1.9391 H       1  UNL1        0.2105
     15 N          18.5255   70.8665   -6.5023 N.ar    1  UNL1       -0.2551
     16 C          19.7716   70.7954   -7.0028 C.ar    1  UNL1        0.3323
     17 N          19.9784   70.6423   -8.3241 N.ar    1  UNL1       -0.2743
     18 C          18.9343   70.5674   -9.1716 C.ar    1  UNL1        0.2626
     19 C          17.6161   70.6466   -8.6593 C.ar    1  UNL1        0.0795
     20 C          17.4370   70.7959   -7.3296 C.ar    1  UNL1        0.0869
     21 O          20.7234   70.8610   -6.2506 O.2     1  UNL1       -0.2464
     22 O          19.1206   70.4337  -10.3682 O.2     1  UNL1       -0.2670
     23 H          20.8845   70.5886   -8.6674 H       1  UNL1        0.1734
     24 O          23.4855   70.9763   -0.5846 O.3     1  UNL1       -0.2703
     25 P          23.8802   71.2088    0.9582 P.3     1  UNL1        0.2208
     26 O          22.8666   70.5721    1.8278 O.2     1  UNL1       -0.5170
     27 O          25.3227   70.5534    1.2475 O.3     1  UNL1       -0.4371
     28 O          23.9379   72.7873    1.2664 O.3     1  UNL1       -0.2858
     29 C          23.6263   72.9515    2.6505 C.3     1  UNL1        0.2704
     30 C          22.6279   74.0985    2.8151 C.3     1  UNL1        0.1967
     31 C          23.2421   75.3800    2.2433 C.3     1  UNL1        0.1715
     32 C          24.6081   75.6047    2.9015 C.3     1  UNL1        0.1694
     33 C          25.4576   74.3431    2.7284 C.3     1  UNL1        0.1761
     34 O          21.4230   73.7887    2.1127 O.3     1  UNL1       -0.3775
     35 O          22.3844   76.4889    2.5211 O.3     1  UNL1       -0.3794
     36 O          24.4293   75.8792    4.2917 O.3     1  UNL1       -0.3794
     37 O          24.8203   73.2415    3.3735 O.3     1  UNL1       -0.3258
     38 H          21.0760   72.9736    2.5000 H       1  UNL1        0.2106
     39 H          21.5366   76.2994    2.0997 H       1  UNL1        0.2105
     40 H          23.8858   76.6755    4.3521 H       1  UNL1        0.2105
     41 C          26.8365   74.5693    3.3524 C.3     1  UNL1        0.1693
     42 O          26.7779   74.2848    4.7512 O.3     1  UNL1       -0.3794
     43 H          27.6646   74.4385    5.1054 H       1  UNL1        0.2105
@<TRIPOS>BOND
     1    15    16   ar
     2    15    20   ar
     3    15     6    1
     4    16    17   ar
     5    16    21    2
     6    17    18   ar
     7    17    23    1
     8    18    19   ar
     9    18    22    2
    10    19    20   ar
    11     6     7    1
    12     6    11    1
    13     7     8    1
    14     7     9    1
    15     8    13    1
    16     9    10    1
    17     9    12    1
    18    10    11    1
    19    10     5    1
    20    12    14    1
    21     5     4    1
    22     4     1    1
    23     1     2    2
    24     1     3    1
    25     1    24    1
    26    24    25    1
    27    25    26    2
    28    25    27    1
    29    25    28    1
    30    28    29    1
    31    29    30    1
    32    29    37    1
    33    30    31    1
    34    30    34    1
    35    31    32    1
    36    31    35    1
    37    32    33    1
    38    32    36    1
    39    33    41    1
    40    33    37    1
    41    41    42    1
    42    34    38    1
    43    35    39    1
    44    36    40    1
    45    42    43    1
@<TRIPOS>MOLECULE
GDU
 43 45 0 0 0
SMALL
GASTEIGER

@<TRIPOS>ATOM
      1 P          15.9592   70.1169   -2.7902 P.3     1  UNL1        0.2189
      2 O          15.8983   69.2541   -3.9908 O.2     1  UNL1       -0.5170
      3 O          14.7237   71.1494   -2.8082 O.3     1  UNL1       -0.4371
      4 O          15.8766   69.2043   -1.4683 O.3     1  UNL1       -0.3112
      5 C          14.8797   69.7851   -0.6261 C.3     1  UNL1        0.1811
      6 C          12.3394   67.6217    0.7132 C.3     1  UNL1        0.2383
      7 C          11.7782   69.0524    0.9153 C.3     1  UNL1        0.1895
      8 O          10.3503   69.0542    0.8487 O.3     1  UNL1       -0.3779
      9 C          12.3890   69.8142   -0.2897 C.3     1  UNL1        0.1713
     10 C          13.5977   68.9539   -0.7025 C.3     1  UNL1        0.1764
     11 O          13.6753   67.8508    0.2169 O.3     1  UNL1       -0.3308
     12 O          11.4422   69.9033   -1.3563 O.3     1  UNL1       -0.3794
     13 H          10.0660   69.9692    0.9818 H       1  UNL1        0.2106
     14 H          10.6855   70.4010   -1.0182 H       1  UNL1        0.2105
     15 N          12.3787   66.8964    1.9842 N.ar    1  UNL1       -0.2551
     16 C          13.5512   66.7307    2.6215 C.ar    1  UNL1        0.3323
     17 N          13.6142   66.0710    3.7931 N.ar    1  UNL1       -0.2743
     18 C          12.4986   65.5548    4.3437 C.ar    1  UNL1        0.2626
     19 C          11.2574   65.7166    3.6807 C.ar    1  UNL1        0.0795
     20 C          11.2218   66.3863    2.5091 C.ar    1  UNL1        0.0869
     21 O          14.5659   67.1911    2.1373 O.2     1  UNL1       -0.2464
     22 O          12.5554   64.9533    5.4017 O.2     1  UNL1       -0.2670
     23 H          14.4683   65.9645    4.2414 H       1  UNL1        0.1734
     24 O          17.3437   70.9388   -2.7908 O.3     1  UNL1       -0.2703
     25 P          18.5198   69.8715   -3.0509 P.3     1  UNL1        0.2208
     26 O          19.5914   70.0649   -2.0492 O.2     1  UNL1       -0.5170
     27 O          17.9281   68.3791   -2.9216 O.3     1  UNL1       -0.4371
     28 O          19.1208   70.0831   -4.5287 O.3     1  UNL1       -0.2858
     29 C          18.7583   71.4021   -4.9392 C.3     1  UNL1        0.2704
     30 C          18.1892   71.3554   -6.3581 C.3     1  UNL1        0.1967
     31 C          19.2446   70.7669   -7.2995 C.3     1  UNL1        0.1715
     32 C          20.5421   71.5679   -7.1431 C.3     1  UNL1        0.1694
     33 C          20.9340   71.5968   -5.6638 C.3     1  UNL1        0.1761
     34 O          17.0185   70.5367   -6.3776 O.3     1  UNL1       -0.3775
     35 O          18.7846   70.8523   -8.6499 O.3     1  UNL1       -0.3794
     36 O          20.3405   72.9008   -7.6151 O.3     1  UNL1       -0.3794
     37 O          19.9104   72.2414   -4.9071 O.3     1  UNL1       -0.3258
     38 H          16.3861   70.9398   -5.7673 H       1  UNL1        0.2106
     39 H          17.9638   70.3461   -8.6985 H       1  UNL1        0.2105
     40 H          20.0906   72.8334   -8.5458 H       1  UNL1        0.2105
     41 C          22.2472   72.3655   -5.5007 C.3     1  UNL1        0.1693
     42 O          23.0323   72.2223   -6.6857 O.3     1  UNL1       -0.3794
     43 H          23.8486   72.7207   -6.5425 H       1  UNL1        0.2105
@<TRIPOS>BOND
     1    15    16   ar
     2    15    20   ar
     3    15     6    1
     4    16    17   ar
     5    16    21    2
     6    17    18   ar
     7    17    23    1
     8    18    19   ar
     9    18    22    2
    10    19    20   ar
    11     6     7    1
    12     6    11    1
    13     7     8    1
    14     7     9    1
    15     8    13    1
    16     9    10    1
    17     9    12    1
    18    10    11    1
    19    10     5    1
    20    12    14    1
    21     5     4    1
    22     4     1    1
    23     1     2    2
    24     1     3    1
    25     1    24    1
    26    24    25    1
    27    25    26    2
    28    25    27    1
    29    25    28    1
    30    28    29    1
    31    29    30    1
    32    29    37    1
    33    30    31    1
    34    30    34    1
    35    31    32    1
    36    31    35    1
    37    32    33    1
    38    32    36    1
    39    33    41    1
    40    33    37    1
    41    41    42    1
    42    34    38    1
    43    35    39    1
    44    36    40    1
    45    42    43    1
@<TRIPOS>MOLECULE
GDU
 43 45 0 0 0
SMALL
GASTEIGER

@<TRIPOS>ATOM
      1 P          21.4784   71.4066   -1.8709 P.3     1  UNL1        0.2189
      2 O          22.0358   70.4552   -2.8576 O.2     1  UNL1       -0.5170
      3 O          20.4825   70.6254   -0.8756 O.3     1  UNL1       -0.4371
      4 O          22.6765   72.0649   -1.0235 O.3     1  UNL1       -0.3112
      5 C          22.6197   71.4948    0.2850 C.3     1  UNL1        0.1811
      6 C          24.8309   73.2413    2.5184 C.3     1  UNL1        0.2383
      7 C          24.8915   74.0516    1.1983 C.3     1  UNL1        0.1895
      8 O          25.1315   75.4362    1.4604 O.3     1  UNL1       -0.3779
      9 C          23.4687   73.8368    0.6196 C.3     1  UNL1        0.1713
     10 C          22.9667   72.5627    1.3240 C.3     1  UNL1        0.1764
     11 O          24.0288   72.0924    2.1719 O.3     1  UNL1       -0.3308
     12 O          22.6298   74.9513    0.9294 O.3     1  UNL1       -0.3794
     13 H          25.1579   75.8819    0.6023 H       1  UNL1        0.2106
     14 H          23.0278   75.7265    0.5106 H       1  UNL1        0.2105
     15 N          26.1721   72.8275    2.9341 N.ar    1  UNL1       -0.2551
     16 C          26.6560   71.6375    2.5367 C.ar    1  UNL1        0.3323
     17 N          27.8874   71.2349    2.9021 N.ar    1  UNL1       -0.2743
     18 C          28.6547   72.0181    3.6843 C.ar    1  UNL1        0.2626
     19 C          28.1558   73.2717    4.1153 C.ar    1  UNL1        0.0795
     20 C          26.9192   73.6530    3.7308 C.ar    1  UNL1        0.0869
     21 O          25.9756   70.9204    1.8304 O.2     1  UNL1       -0.2464
     22 O          29.7676   71.6524    4.0195 O.2     1  UNL1       -0.2670
     23 H          28.2223   70.3747    2.6025 H       1  UNL1        0.1734
     24 O          20.6660   72.5633   -2.6419 O.3     1  UNL1       -0.2703
     25 P          19.3716   71.8669   -3.2973 P.3     1  UNL1        0.2208
     26 O          19.3525   70.4304   -2.9437 O.2     1  UNL1       -0.5170
     27 O          18.0389   72.5753   -2.7350 O.3     1  UNL1       -0.4371
     28 O          19.4279   72.0259   -4.8978 O.3     1  UNL1       -0.2858
     29 C          19.9533   70.8039   -5.4180 C.3     1  UNL1        0.2704
     30 C          21.1027   71.1120   -6.3788 C.3     1  UNL1        0.1967
     31 C          20.5811   72.0020   -7.5112 C.3     1  UNL1        0.1715
     32 C          19.3636   71.3221   -8.1475 C.3     1  UNL1        0.1694
     33 C          18.3444   70.9997   -7.0519 C.3     1  UNL1        0.1761
     34 O          22.1451   71.7909   -5.6760 O.3     1  UNL1       -0.3775
     35 O          21.6040   72.1777   -8.4937 O.3     1  UNL1       -0.3794
     36 O          19.7735   70.1169   -8.7951 O.3     1  UNL1       -0.3794
     37 O          18.9221   70.1004   -6.1066 O.3     1  UNL1       -0.3258
     38 H          22.4374   71.1983   -4.9700 H       1  UNL1        0.2106
     39 H          22.3514   72.5958   -8.0479 H       1  UNL1        0.2105
     40 H          20.4170   70.3671   -9.4708 H       1  UNL1        0.2105
     41 C          17.1094   70.3512   -7.6814 C.3     1  UNL1        0.1693
     42 O          17.0318   70.7158   -9.0606 O.3     1  UNL1       -0.3794
     43 H          16.2425   70.2873   -9.4194 H       1  UNL1        0.2105
@<TRIPOS>BOND
     1    15    16   ar
     2    15    20   ar
     3    15     6    1
     4    16    17   ar
     5    16    21    2
     6    17    18   ar
     7    17    23    1
     8    18    19   ar
     9    18    22    2
    10    19    20   ar
    11     6     7    1
    12     6    11    1
    13     7     8    1
    14     7     9    1
    15     8    13    1
    16     9    10    1
    17     9    12    1
    18    10    11    1
    19    10     5    1
    20    12    14    1
    21     5     4    1
    22     4     1    1
    23     1     2    2
    24     1     3    1
    25     1    24    1
    26    24    25    1
    27    25    26    2
    28    25    27    1
    29    25    28    1
    30    28    29    1
    31    29    30    1
    32    29    37    1
    33    30    31    1
    34    30    34    1
    35    31    32    1
    36    31    35    1
    37    32    33    1
    38    32    36    1
    39    33    41    1
    40    33    37    1
    41    41    42    1
    42    34    38    1
    43    35    39    1
    44    36    40    1
    45    42    43    1
@<TRIPOS>MOLECULE
GDU
 43 45 0 0 0
SMALL
GASTEIGER

@<TRIPOS>ATOM
      1 P          23.5123   72.0705   -3.1010 P.3     1  UNL1        0.2189
      2 O          24.1788   72.8922   -4.1355 O.2     1  UNL1       -0.5170
      3 O          24.2760   70.6596   -2.9622 O.3     1  UNL1       -0.4371
      4 O          23.5539   72.8441   -1.6915 O.3     1  UNL1       -0.3112
      5 C          23.4720   71.8485   -0.6705 C.3     1  UNL1        0.1811
      6 C          24.8896   73.0709    2.3993 C.3     1  UNL1        0.2383
      7 C          24.9181   74.2916    1.4443 C.3     1  UNL1        0.1895
      8 O          24.7786   75.5130    2.1736 O.3     1  UNL1       -0.3779
      9 C          23.6757   74.0351    0.5521 C.3     1  UNL1        0.1713
     10 C          23.4138   72.5249    0.7004 C.3     1  UNL1        0.1764
     11 O          24.4419   71.9910    1.5525 O.3     1  UNL1       -0.3308
     12 O          22.5585   74.7920    1.0219 O.3     1  UNL1       -0.3794
     13 H          24.8044   76.2299    1.5246 H       1  UNL1        0.2106
     14 H          22.8057   75.7246    0.9593 H       1  UNL1        0.2105
     15 N          26.2272   72.7934    2.9253 N.ar    1  UNL1       -0.2551
     16 C          26.7388   73.5751    3.8924 C.ar    1  UNL1        0.3323
     17 N          27.9648   73.3395    4.3957 N.ar    1  UNL1       -0.2743
     18 C          28.7065   72.3168    3.9288 C.ar    1  UNL1        0.2626
     19 C          28.1828   71.4884    2.9061 C.ar    1  UNL1        0.0795
     20 C          26.9488   71.7445    2.4221 C.ar    1  UNL1        0.0869
     21 O          26.0814   74.5012    4.3239 O.2     1  UNL1       -0.2464
     22 O          29.8183   72.1056    4.3804 O.2     1  UNL1       -0.2670
     23 H          28.3167   73.9113    5.0964 H       1  UNL1        0.1734
     24 O          21.9815   71.8109   -3.5272 O.3     1  UNL1       -0.2703
     25 P          21.7653   72.5293   -4.9510 P.3     1  UNL1        0.2208
     26 O          21.6965   73.9947   -4.7584 O.2     1  UNL1       -0.5170
     27 O          22.9985   72.1737   -5.9240 O.3     1  UNL1       -0.4371
     28 O          20.3937   72.0091   -5.6130 O.3     1  UNL1       -0.2858
     29 C          20.0997   72.8857   -6.7015 C.3     1  UNL1        0.2704
     30 C          18.7180   73.5083   -6.4949 C.3     1  UNL1        0.1967
     31 C          17.6755   72.3896   -6.4046 C.3     1  UNL1        0.1715
     32 C          17.8092   71.4942   -7.6416 C.3     1  UNL1        0.1694
     33 C          19.2605   71.0225   -7.7600 C.3     1  UNL1        0.1761
     34 O          18.7118   74.2691   -5.2857 O.3     1  UNL1       -0.3775
     35 O          16.3648   72.9574   -6.3593 O.3     1  UNL1       -0.3794
     36 O          17.4453   72.2335   -8.8082 O.3     1  UNL1       -0.3794
     37 O          20.1212   72.1490   -7.9219 O.3     1  UNL1       -0.3258
     38 H          19.3860   74.9551   -5.3842 H       1  UNL1        0.2106
     39 H          16.3304   73.5199   -5.5753 H       1  UNL1        0.2105
     40 H          16.5289   72.5144   -8.6870 H       1  UNL1        0.2105
     41 C          19.3976   70.0996   -8.9731 C.3     1  UNL1        0.1693
     42 O          18.1006   69.6793   -9.3998 O.3     1  UNL1       -0.3794
     43 H          18.2310   69.1017  -10.1644 H       1  UNL1        0.2105
@<TRIPOS>BOND
     1    15    16   ar
     2    15    20   ar
     3    15     6    1
     4    16    17   ar
     5    16    21    2
     6    17    18   ar
     7    17    23    1
     8    18    19   ar
     9    18    22    2
    10    19    20   ar
    11     6     7    1
    12     6    11    1
    13     7     8    1
    14     7     9    1
    15     8    13    1
    16     9    10    1
    17     9    12    1
    18    10    11    1
    19    10     5    1
    20    12    14    1
    21     5     4    1
    22     4     1    1
    23     1     2    2
    24     1     3    1
    25     1    24    1
    26    24    25    1
    27    25    26    2
    28    25    27    1
    29    25    28    1
    30    28    29    1
    31    29    30    1
    32    29    37    1
    33    30    31    1
    34    30    34    1
    35    31    32    1
    36    31    35    1
    37    32    33    1
    38    32    36    1
    39    33    41    1
    40    33    37    1
    41    41    42    1
    42    34    38    1
    43    35    39    1
    44    36    40    1
    45    42    43    1
@<TRIPOS>MOLECULE
GDU
 43 45 0 0 0
SMALL
GASTEIGER

@<TRIPOS>ATOM
      1 P          20.3513   71.4398   -0.7244 P.3     1  UNL1        0.2189
      2 O          19.9589   72.6007    0.1050 O.2     1  UNL1       -0.5170
      3 O          21.2414   70.4275    0.1565 O.3     1  UNL1       -0.4371
      4 O          19.0320   70.6809   -1.2444 O.3     1  UNL1       -0.3112
      5 C          19.2698   70.3244   -2.6071 C.3     1  UNL1        0.1811
      6 C          17.3414   70.4308   -5.6398 C.3     1  UNL1        0.2383
      7 C          17.1802   68.9768   -5.1270 C.3     1  UNL1        0.1895
      8 O          15.9093   68.4414   -5.5030 O.3     1  UNL1       -0.3779
      9 C          17.2693   69.1627   -3.5899 C.3     1  UNL1        0.1713
     10 C          17.9862   70.5146   -3.4173 C.3     1  UNL1        0.1764
     11 O          18.3060   71.0034   -4.7314 O.3     1  UNL1       -0.3308
     12 O          15.9616   69.2053   -3.0153 O.3     1  UNL1       -0.3794
     13 H          15.8730   67.5393   -5.1556 H       1  UNL1        0.2106
     14 H          15.5434   68.3550   -3.2073 H       1  UNL1        0.2105
     15 N          17.8537   70.4427   -7.0110 N.ar    1  UNL1       -0.2551
     16 C          16.9936   70.4247   -8.0445 C.ar    1  UNL1        0.3323
     17 N          17.4385   70.4386   -9.3148 N.ar    1  UNL1       -0.2743
     18 C          18.7605   70.4609   -9.5720 C.ar    1  UNL1        0.2626
     19 C          19.6783   70.4743   -8.4934 C.ar    1  UNL1        0.0795
     20 C          19.2051   70.4642   -7.2291 C.ar    1  UNL1        0.0869
     21 O          15.7982   70.4050   -7.8280 O.2     1  UNL1       -0.2464
     22 O          19.1642   70.4687  -10.7216 O.2     1  UNL1       -0.2670
     23 H          16.8034   70.4296  -10.0485 H       1  UNL1        0.1734
     24 O          21.2115   71.9494   -1.9864 O.3     1  UNL1       -0.2703
     25 P          21.0403   73.5482   -2.0528 P.3     1  UNL1        0.2208
     26 O          19.6107   73.8978   -1.9009 O.2     1  UNL1       -0.5170
     27 O          21.8878   74.2282   -0.8639 O.3     1  UNL1       -0.4371
     28 O          21.5781   74.0882   -3.4703 O.3     1  UNL1       -0.2858
     29 C          21.4951   72.9975   -4.3885 C.3     1  UNL1        0.2704
     30 C          22.6504   73.0834   -5.3870 C.3     1  UNL1        0.1967
     31 C          22.5704   74.4215   -6.1282 C.3     1  UNL1        0.1715
     32 C          21.1705   74.5617   -6.7368 C.3     1  UNL1        0.1694
     33 C          20.1267   74.3654   -5.6345 C.3     1  UNL1        0.1761
     34 O          23.8939   72.9948   -4.6890 O.3     1  UNL1       -0.3775
     35 O          23.5530   74.4554   -7.1654 O.3     1  UNL1       -0.3794
     36 O          20.9904   73.5746   -7.7533 O.3     1  UNL1       -0.3794
     37 O          20.2507   73.0558   -5.0818 O.3     1  UNL1       -0.3258
     38 H          23.8975   72.1424   -4.2326 H       1  UNL1        0.2106
     39 H          24.4133   74.3523   -6.7393 H       1  UNL1        0.2105
     40 H          21.6706   73.7329   -8.4208 H       1  UNL1        0.2105
     41 C          18.7253   74.5374   -6.2251 C.3     1  UNL1        0.1693
     42 O          18.7603   75.5313   -7.2507 O.3     1  UNL1       -0.3794
     43 H          17.8604   75.6085   -7.5964 H       1  UNL1        0.2105
@<TRIPOS>BOND
     1    15    16   ar
     2    15    20   ar
     3    15     6    1
     4    16    17   ar
     5    16    21    2
     6    17    18   ar
     7    17    23    1
     8    18    19   ar
     9    18    22    2
    10    19    20   ar
    11     6     7    1
    12     6    11    1
    13     7     8    1
    14     7     9    1
    15     8    13    1
    16     9    10    1
    17     9    12    1
    18    10    11    1
    19    10     5    1
    20    12    14    1
    21     5     4    1
    22     4     1    1
    23     1     2    2
    24     1     3    1
    25     1    24    1
    26    24    25    1
    27    25    26    2
    28    25    27    1
    29    25    28    1
    30    28    29    1
    31    29    30    1
    32    29    37    1
    33    30    31    1
    34    30    34    1
    35    31    32    1
    36    31    35    1
    37    32    33    1
    38    32    36    1
    39    33    41    1
    40    33    37    1
    41    41    42    1
    42    34    38    1
    43    35    39    1
    44    36    40    1
    45    42    43    1
@<TRIPOS>MOLECULE
GDU
 43 45 0 0 0
SMALL
GASTEIGER

@<TRIPOS>ATOM
      1 P          22.4788   71.7104   -0.6187 P.3     1  UNL1        0.2189
      2 O          21.5293   70.6791   -0.1451 O.2     1  UNL1       -0.5170
      3 O          23.8079   70.9975   -1.1828 O.3     1  UNL1       -0.4371
      4 O          21.7940   72.5732   -1.7906 O.3     1  UNL1       -0.3112
      5 C          20.7534   71.7664   -2.3445 C.3     1  UNL1        0.1811
      6 C          20.2886   70.8710   -5.7955 C.3     1  UNL1        0.2383
      7 C          20.8638   72.3098   -5.8409 C.3     1  UNL1        0.1895
      8 O          21.6436   72.5102   -7.0220 O.3     1  UNL1       -0.3779
      9 C          21.7592   72.3418   -4.5750 C.3     1  UNL1        0.1713
     10 C          21.2039   71.2066   -3.6950 C.3     1  UNL1        0.1764
     11 O          20.0795   70.6361   -4.3868 O.3     1  UNL1       -0.3308
     12 O          23.1232   72.0938   -4.9214 O.3     1  UNL1       -0.3794
     13 H          21.9704   73.4202   -6.9893 H       1  UNL1        0.2106
     14 H          23.3942   72.8042   -5.5185 H       1  UNL1        0.2105
     15 N          19.0214   70.7966   -6.5246 N.ar    1  UNL1       -0.2551
     16 C          19.0109   70.3781   -7.8025 C.ar    1  UNL1        0.3323
     17 N          17.8589   70.2972   -8.4941 N.ar    1  UNL1       -0.2743
     18 C          16.6931   70.6456   -7.9165 C.ar    1  UNL1        0.2626
     19 C          16.6897   71.0937   -6.5729 C.ar    1  UNL1        0.0795
     20 C          17.8586   71.1613   -5.9009 C.ar    1  UNL1        0.0869
     21 O          20.0546   70.0600   -8.3368 O.2     1  UNL1       -0.2464
     22 O          15.6505   70.5772   -8.5433 O.2     1  UNL1       -0.2670
     23 H          17.8694   69.9890   -9.4142 H       1  UNL1        0.1734
     24 O          22.8702   72.6806    0.6052 O.3     1  UNL1       -0.2703
     25 P          22.8830   71.7733    1.9343 P.3     1  UNL1        0.2208
     26 O          21.4926   71.5233    2.3741 O.2     1  UNL1       -0.5170
     27 O          23.6060   70.3691    1.6182 O.3     1  UNL1       -0.4371
     28 O          23.6862   72.5385    3.1001 O.3     1  UNL1       -0.2858
     29 C          23.3557   73.9237    2.9914 C.3     1  UNL1        0.2704
     30 C          24.6341   74.7374    2.7838 C.3     1  UNL1        0.1967
     31 C          25.5757   74.4973    3.9679 C.3     1  UNL1        0.1715
     32 C          24.8166   74.7951    5.2659 C.3     1  UNL1        0.1694
     33 C          23.5243   73.9748    5.2861 C.3     1  UNL1        0.1761
     34 O          25.2714   74.3269    1.5728 O.3     1  UNL1       -0.3775
     35 O          26.7092   75.3614    3.8629 O.3     1  UNL1       -0.3794
     36 O          24.5053   76.1876    5.3287 O.3     1  UNL1       -0.3794
     37 O          22.6995   74.3489    4.1835 O.3     1  UNL1       -0.3258
     38 H          24.6415   74.4889    0.8573 H       1  UNL1        0.2106
     39 H          27.1476   75.1478    3.0295 H       1  UNL1        0.2105
     40 H          25.3458   76.6635    5.3076 H       1  UNL1        0.2105
     41 C          22.7751   74.2388    6.5941 C.3     1  UNL1        0.1693
     42 O          23.3947   73.5068    7.6530 O.3     1  UNL1       -0.3794
     43 H          22.8942   73.7008    8.4575 H       1  UNL1        0.2105
@<TRIPOS>BOND
     1    15    16   ar
     2    15    20   ar
     3    15     6    1
     4    16    17   ar
     5    16    21    2
     6    17    18   ar
     7    17    23    1
     8    18    19   ar
     9    18    22    2
    10    19    20   ar
    11     6     7    1
    12     6    11    1
    13     7     8    1
    14     7     9    1
    15     8    13    1
    16     9    10    1
    17     9    12    1
    18    10    11    1
    19    10     5    1
    20    12    14    1
    21     5     4    1
    22     4     1    1
    23     1     2    2
    24     1     3    1
    25     1    24    1
    26    24    25    1
    27    25    26    2
    28    25    27    1
    29    25    28    1
    30    28    29    1
    31    29    30    1
    32    29    37    1
    33    30    31    1
    34    30    34    1
    35    31    32    1
    36    31    35    1
    37    32    33    1
    38    32    36    1
    39    33    41    1
    40    33    37    1
    41    41    42    1
    42    34    38    1
    43    35    39    1
    44    36    40    1
    45    42    43    1
@<TRIPOS>MOLECULE
GDU
 43 45 0 0 0
SMALL
GASTEIGER

@<TRIPOS>ATOM
      1 P          21.7761   72.2721   -6.3439 P.3     1  UNL1        0.2189
      2 O          23.1510   72.6345   -6.7536 O.2     1  UNL1       -0.5170
      3 O          20.7595   73.4409   -6.7836 O.3     1  UNL1       -0.4371
      4 O          21.3493   70.8941   -7.0550 O.3     1  UNL1       -0.3112
      5 C          20.5042   71.2398   -8.1536 C.3     1  UNL1        0.1811
      6 C          17.3511   70.0288   -6.9209 C.3     1  UNL1        0.2383
      7 C          16.9712   71.0787   -7.9963 C.3     1  UNL1        0.1895
      8 O          15.7346   70.7380   -8.6271 O.3     1  UNL1       -0.3779
      9 C          18.1520   70.9626   -8.9951 C.3     1  UNL1        0.1713
     10 C          19.2810   70.3213   -8.1670 C.3     1  UNL1        0.1764
     11 O          18.7868   70.1462   -6.8279 O.3     1  UNL1       -0.3308
     12 O          17.7938   70.1264  -10.0971 O.3     1  UNL1       -0.3794
     13 H          15.5562   71.4275   -9.2818 H       1  UNL1        0.2106
     14 H          17.0461   70.5509  -10.5393 H       1  UNL1        0.2105
     15 N          16.7231   70.3505   -5.6384 N.ar    1  UNL1       -0.2551
     16 C          16.3014   71.6046   -5.3984 C.ar    1  UNL1        0.3323
     17 N          15.7176   71.9259   -4.2288 N.ar    1  UNL1       -0.2743
     18 C          15.5547   70.9928   -3.2712 C.ar    1  UNL1        0.2626
     19 C          15.9992   69.6690   -3.5079 C.ar    1  UNL1        0.0795
     20 C          16.5776   69.3729   -4.6912 C.ar    1  UNL1        0.0869
     21 O          16.4411   72.4569   -6.2528 O.2     1  UNL1       -0.2464
     22 O          15.0307   71.2838   -2.2104 O.2     1  UNL1       -0.2670
     23 H          15.4153   72.8350   -4.0742 H       1  UNL1        0.1734
     24 O          21.7238   72.0909   -4.7448 O.3     1  UNL1       -0.2703
     25 P          22.7091   73.1979   -4.1174 P.3     1  UNL1        0.2208
     26 O          22.4464   73.3264   -2.6670 O.2     1  UNL1       -0.5170
     27 O          24.2382   72.7471   -4.3474 O.3     1  UNL1       -0.4371
     28 O          22.4545   74.6145   -4.8374 O.3     1  UNL1       -0.2858
     29 C          23.6512   75.3789   -4.6843 C.3     1  UNL1        0.2704
     30 C          23.3179   76.7212   -4.0314 C.3     1  UNL1        0.1967
     31 C          22.3089   77.4664   -4.9106 C.3     1  UNL1        0.1715
     32 C          22.8707   77.5551   -6.3340 C.3     1  UNL1        0.1694
     33 C          23.2363   76.1481   -6.8133 C.3     1  UNL1        0.1761
     34 O          22.7542   76.4974   -2.7378 O.3     1  UNL1       -0.3775
     35 O          22.0992   78.7815   -4.3918 O.3     1  UNL1       -0.3794
     36 O          24.0340   78.3837   -6.3378 O.3     1  UNL1       -0.3794
     37 O          24.2412   75.5962   -5.9639 O.3     1  UNL1       -0.3258
     38 H          23.4192   76.0209   -2.2224 H       1  UNL1        0.2106
     39 H          21.7583   78.6773   -3.4945 H       1  UNL1        0.2105
     40 H          23.7581   79.2549   -6.0244 H       1  UNL1        0.2105
     41 C          23.7666   76.2213   -8.2470 C.3     1  UNL1        0.1693
     42 O          22.6778   76.4378   -9.1462 O.3     1  UNL1       -0.3794
     43 H          23.0537   76.4784  -10.0363 H       1  UNL1        0.2105
@<TRIPOS>BOND
     1    15    16   ar
     2    15    20   ar
     3    15     6    1
     4    16    17   ar
     5    16    21    2
     6    17    18   ar
     7    17    23    1
     8    18    19   ar
     9    18    22    2
    10    19    20   ar
    11     6     7    1
    12     6    11    1
    13     7     8    1
    14     7     9    1
    15     8    13    1
    16     9    10    1
    17     9    12    1
    18    10    11    1
    19    10     5    1
    20    12    14    1
    21     5     4    1
    22     4     1    1
    23     1     2    2
    24     1     3    1
    25     1    24    1
    26    24    25    1
    27    25    26    2
    28    25    27    1
    29    25    28    1
    30    28    29    1
    31    29    30    1
    32    29    37    1
    33    30    31    1
    34    30    34    1
    35    31    32    1
    36    31    35    1
    37    32    33    1
    38    32    36    1
    39    33    41    1
    40    33    37    1
    41    41    42    1
    42    34    38    1
    43    35    39    1
    44    36    40    1
    45    42    43    1
@<TRIPOS>MOLECULE
GDU
 43 45 0 0 0
SMALL
GASTEIGER

@<TRIPOS>ATOM
      1 P          20.1181   71.3829   -1.6806 P.3     1  UNL1        0.2189
      2 O          20.5415   70.7273   -0.4235 O.2     1  UNL1       -0.5170
      3 O          21.2973   71.2649   -2.7709 O.3     1  UNL1       -0.4371
      4 O          18.7940   70.6631   -2.2423 O.3     1  UNL1       -0.3112
      5 C          17.8716   71.6999   -2.5812 C.3     1  UNL1        0.1811
      6 C          16.7524   70.4805   -5.7731 C.3     1  UNL1        0.2383
      7 C          17.1410   69.2044   -4.9835 C.3     1  UNL1        0.1895
      8 O          16.3371   68.0923   -5.3841 O.3     1  UNL1       -0.3779
      9 C          16.8249   69.6175   -3.5224 C.3     1  UNL1        0.1713
     10 C          16.8285   71.1570   -3.5597 C.3     1  UNL1        0.1764
     11 O          17.1632   71.5546   -4.9006 O.3     1  UNL1       -0.3308
     12 O          15.5431   69.1229   -3.1295 O.3     1  UNL1       -0.3794
     13 H          16.6280   67.3342   -4.8582 H       1  UNL1        0.2106
     14 H          15.5866   68.1585   -3.1832 H       1  UNL1        0.2105
     15 N          17.4756   70.5433   -7.0442 N.ar    1  UNL1       -0.2551
     16 C          16.7904   70.5599   -8.2012 C.ar    1  UNL1        0.3323
     17 N          17.4310   70.6209   -9.3835 N.ar    1  UNL1       -0.2743
     18 C          18.7767   70.6566   -9.4266 C.ar    1  UNL1        0.2626
     19 C          19.5118   70.6339   -8.2161 C.ar    1  UNL1        0.0795
     20 C          18.8442   70.5768   -7.0442 C.ar    1  UNL1        0.0869
     21 O          15.5761   70.5287   -8.1781 O.2     1  UNL1       -0.2464
     22 O          19.3576   70.7070  -10.4965 O.2     1  UNL1       -0.2670
     23 H          16.9203   70.6364  -10.2085 H       1  UNL1        0.1734
     24 O          19.8061   72.9366   -1.3957 O.3     1  UNL1       -0.2703
     25 P          21.2172   73.6476   -1.0906 P.3     1  UNL1        0.2208
     26 O          22.1225   73.4629   -2.2462 O.2     1  UNL1       -0.5170
     27 O          20.9819   75.2212   -0.8400 O.3     1  UNL1       -0.4371
     28 O          21.8784   72.9897    0.2209 O.3     1  UNL1       -0.2858
     29 C          23.2852   73.2211    0.1369 C.3     1  UNL1        0.2704
     30 C          24.0270   71.8865    0.2270 C.3     1  UNL1        0.1967
     31 C          23.6690   71.2056    1.5516 C.3     1  UNL1        0.1715
     32 C          23.9474   72.1852    2.6972 C.3     1  UNL1        0.1694
     33 C          23.2094   73.4974    2.4204 C.3     1  UNL1        0.1761
     34 O          23.6395   71.0489   -0.8636 O.3     1  UNL1       -0.3775
     35 O          24.4649   70.0302    1.7177 O.3     1  UNL1       -0.3794
     36 O          25.3517   72.4307    2.7855 O.3     1  UNL1       -0.3794
     37 O          23.6896   74.0729    1.2063 O.3     1  UNL1       -0.3258
     38 H          23.8765   71.5192   -1.6744 H       1  UNL1        0.2106
     39 H          24.2669   69.4504    0.9715 H       1  UNL1        0.2105
     40 H          25.7746   71.5786    2.9541 H       1  UNL1        0.2105
     41 C          23.4530   74.4711    3.5757 C.3     1  UNL1        0.1693
     42 O          23.6903   73.7343    4.7765 O.3     1  UNL1       -0.3794
     43 H          23.8395   74.3830    5.4780 H       1  UNL1        0.2105
@<TRIPOS>BOND
     1    15    16   ar
     2    15    20   ar
     3    15     6    1
     4    16    17   ar
     5    16    21    2
     6    17    18   ar
     7    17    23    1
     8    18    19   ar
     9    18    22    2
    10    19    20   ar
    11     6     7    1
    12     6    11    1
    13     7     8    1
    14     7     9    1
    15     8    13    1
    16     9    10    1
    17     9    12    1
    18    10    11    1
    19    10     5    1
    20    12    14    1
    21     5     4    1
    22     4     1    1
    23     1     2    2
    24     1     3    1
    25     1    24    1
    26    24    25    1
    27    25    26    2
    28    25    27    1
    29    25    28    1
    30    28    29    1
    31    29    30    1
    32    29    37    1
    33    30    31    1
    34    30    34    1
    35    31    32    1
    36    31    35    1
    37    32    33    1
    38    32    36    1
    39    33    41    1
    40    33    37    1
    41    41    42    1
    42    34    38    1
    43    35    39    1
    44    36    40    1
    45    42    43    1
@<TRIPOS>MOLECULE
GDU
 43 45 0 0 0
SMALL
GASTEIGER

@<TRIPOS>ATOM
      1 P          18.0220   69.9488   -3.1907 P.3     1  UNL1        0.2189
      2 O          18.5268   69.6360   -1.8354 O.2     1  UNL1       -0.5170
      3 O          17.1262   68.7223   -3.7258 O.3     1  UNL1       -0.4371
      4 O          17.1263   71.2835   -3.1354 O.3     1  UNL1       -0.3112
      5 C          16.4266   71.2609   -1.8903 C.3     1  UNL1        0.1811
      6 C          13.4376   69.4568   -1.0309 C.3     1  UNL1        0.2383
      7 C          13.2139   70.8779   -0.4534 C.3     1  UNL1        0.1895
      8 O          11.8254   71.2173   -0.4578 O.3     1  UNL1       -0.3779
      9 C          14.0027   71.7628   -1.4535 C.3     1  UNL1        0.1713
     10 C          14.9904   70.7864   -2.1188 C.3     1  UNL1        0.1764
     11 O          14.7988   69.4980   -1.5093 O.3     1  UNL1       -0.3308
     12 O          13.1195   72.3298   -2.4232 O.3     1  UNL1       -0.3794
     13 H          11.7550   72.1084   -0.0879 H       1  UNL1        0.2106
     14 H          12.4905   72.8824   -1.9399 H       1  UNL1        0.2105
     15 N          13.2889   68.4435    0.0150 N.ar    1  UNL1       -0.2551
     16 C          12.1556   67.7235    0.0896 C.ar    1  UNL1        0.3323
     17 N          11.9949   66.7833    1.0394 N.ar    1  UNL1       -0.2743
     18 C          12.9687   66.5545    1.9413 C.ar    1  UNL1        0.2626
     19 C          14.1656   67.3092    1.8784 C.ar    1  UNL1        0.0795
     20 C          14.3024   68.2430    0.9131 C.ar    1  UNL1        0.0869
     21 O          11.2685   67.9183   -0.7174 O.2     1  UNL1       -0.2464
     22 O          12.8223   65.7069    2.8043 O.2     1  UNL1       -0.2670
     23 H          11.1721   66.2700    1.0758 H       1  UNL1        0.1734
     24 O          19.2665   70.1769   -4.1864 O.3     1  UNL1       -0.2703
     25 P          19.0885   71.6423   -4.8277 P.3     1  UNL1        0.2208
     26 O          17.6824   72.0779   -4.6792 O.2     1  UNL1       -0.5170
     27 O          20.0551   72.6818   -4.0666 O.3     1  UNL1       -0.4371
     28 O          19.4751   71.5965   -6.3892 O.3     1  UNL1       -0.2858
     29 C          19.1584   70.2847   -6.8568 C.3     1  UNL1        0.2704
     30 C          19.9238   70.0071   -8.1516 C.3     1  UNL1        0.1967
     31 C          19.5382   71.0608   -9.1944 C.3     1  UNL1        0.1715
     32 C          18.0115   71.0798   -9.3305 C.3     1  UNL1        0.1694
     33 C          17.3908   71.2782   -7.9454 C.3     1  UNL1        0.1761
     34 O          21.3288   70.0720   -7.9003 O.3     1  UNL1       -0.3775
     35 O          20.1307   70.7306  -10.4524 O.3     1  UNL1       -0.3794
     36 O          17.5659   69.8419   -9.8862 O.3     1  UNL1       -0.3794
     37 O          17.7557   70.1925   -7.0944 O.3     1  UNL1       -0.3258
     38 H          21.5246   69.3984   -7.2349 H       1  UNL1        0.2106
     39 H          21.0866   70.7185  -10.3169 H       1  UNL1        0.2105
     40 H          17.9852   69.7569  -10.7524 H       1  UNL1        0.2105
     41 C          15.8669   71.3330   -8.0745 C.3     1  UNL1        0.1693
     42 O          15.4920   72.5155   -8.7830 O.3     1  UNL1       -0.3794
     43 H          14.5267   72.5115   -8.8432 H       1  UNL1        0.2105
@<TRIPOS>BOND
     1    15    16   ar
     2    15    20   ar
     3    15     6    1
     4    16    17   ar
     5    16    21    2
     6    17    18   ar
     7    17    23    1
     8    18    19   ar
     9    18    22    2
    10    19    20   ar
    11     6     7    1
    12     6    11    1
    13     7     8    1
    14     7     9    1
    15     8    13    1
    16     9    10    1
    17     9    12    1
    18    10    11    1
    19    10     5    1
    20    12    14    1
    21     5     4    1
    22     4     1    1
    23     1     2    2
    24     1     3    1
    25     1    24    1
    26    24    25    1
    27    25    26    2
    28    25    27    1
    29    25    28    1
    30    28    29    1
    31    29    30    1
    32    29    37    1
    33    30    31    1
    34    30    34    1
    35    31    32    1
    36    31    35    1
    37    32    33    1
    38    32    36    1
    39    33    41    1
    40    33    37    1
    41    41    42    1
    42    34    38    1
    43    35    39    1
    44    36    40    1
    45    42    43    1
@<TRIPOS>MOLECULE
GDU
 43 45 0 0 0
SMALL
GASTEIGER

@<TRIPOS>ATOM
      1 P          21.8148   72.2933   -6.1907 P.3     1  UNL1        0.2189
      2 O          23.1592   72.7821   -6.5689 O.2     1  UNL1       -0.5170
      3 O          20.7234   73.4388   -6.4904 O.3     1  UNL1       -0.4371
      4 O          21.4612   70.9781   -7.0464 O.3     1  UNL1       -0.3112
      5 C          20.5679   71.3870   -8.0834 C.3     1  UNL1        0.1811
      6 C          17.4065   70.1577   -6.8911 C.3     1  UNL1        0.2383
      7 C          17.0344   71.1951   -7.9812 C.3     1  UNL1        0.1895
      8 O          15.8112   70.8379   -8.6287 O.3     1  UNL1       -0.3779
      9 C          18.2321   71.0815   -8.9600 C.3     1  UNL1        0.1713
     10 C          19.3533   70.4573   -8.1086 C.3     1  UNL1        0.1764
     11 O          18.8393   70.2889   -6.7761 O.3     1  UNL1       -0.3308
     12 O          17.8991   70.2330  -10.0605 O.3     1  UNL1       -0.3794
     13 H          15.6371   71.5204   -9.2919 H       1  UNL1        0.2106
     14 H          17.1548   70.6469  -10.5181 H       1  UNL1        0.2105
     15 N          16.7551   70.4843   -5.6215 N.ar    1  UNL1       -0.2551
     16 C          16.4171   69.4979   -4.7723 C.ar    1  UNL1        0.3323
     17 N          15.8204   69.7714   -3.5971 N.ar    1  UNL1       -0.2743
     18 C          15.5421   71.0443   -3.2558 C.ar    1  UNL1        0.2626
     19 C          15.8872   72.0932   -4.1430 C.ar    1  UNL1        0.0795
     20 C          16.4886   71.7913   -5.3133 C.ar    1  UNL1        0.0869
     21 O          16.6622   68.3449   -5.0662 O.2     1  UNL1       -0.2464
     22 O          14.9977   71.2925   -2.1944 O.2     1  UNL1       -0.2670
     23 H          15.5873   69.0474   -2.9944 H       1  UNL1        0.1734
     24 O          21.7971   71.9347   -4.6211 O.3     1  UNL1       -0.2703
     25 P          22.8636   72.9066   -3.9084 P.3     1  UNL1        0.2208
     26 O          24.2338   72.5010   -4.2923 O.2     1  UNL1       -0.5170
     27 O          22.6028   74.4251   -4.3776 O.3     1  UNL1       -0.4371
     28 O          22.7004   72.8043   -2.3106 O.3     1  UNL1       -0.2858
     29 C          22.0425   71.5662   -2.0391 C.3     1  UNL1        0.2704
     30 C          20.7294   71.8380   -1.3034 C.3     1  UNL1        0.1967
     31 C          21.0328   72.5861   -0.0016 C.3     1  UNL1        0.1715
     32 C          22.0718   71.7864    0.7924 C.3     1  UNL1        0.1694
     33 C          23.2849   71.5200   -0.1024 C.3     1  UNL1        0.1761
     34 O          19.8754   72.6342   -2.1269 O.3     1  UNL1       -0.3775
     35 O          19.8350   72.7178    0.7668 O.3     1  UNL1       -0.3794
     36 O          21.5009   70.5466    1.2131 O.3     1  UNL1       -0.3794
     37 O          22.8877   70.7473   -1.2343 O.3     1  UNL1       -0.3258
     38 H          19.7172   72.1286   -2.9357 H       1  UNL1        0.2106
     39 H          19.2086   73.2148    0.2257 H       1  UNL1        0.2105
     40 H          20.7397   70.7628    1.7673 H       1  UNL1        0.2105
     41 C          24.3433   70.7513    0.6918 C.3     1  UNL1        0.1693
     42 O          24.0578   70.8540    2.0879 O.3     1  UNL1       -0.3794
     43 H          24.7457   70.3569    2.5515 H       1  UNL1        0.2105
@<TRIPOS>BOND
     1    15    16   ar
     2    15    20   ar
     3    15     6    1
     4    16    17   ar
     5    16    21    2
     6    17    18   ar
     7    17    23    1
     8    18    19   ar
     9    18    22    2
    10    19    20   ar
    11     6     7    1
    12     6    11    1
    13     7     8    1
    14     7     9    1
    15     8    13    1
    16     9    10    1
    17     9    12    1
    18    10    11    1
    19    10     5    1
    20    12    14    1
    21     5     4    1
    22     4     1    1
    23     1     2    2
    24     1     3    1
    25     1    24    1
    26    24    25    1
    27    25    26    2
    28    25    27    1
    29    25    28    1
    30    28    29    1
    31    29    30    1
    32    29    37    1
    33    30    31    1
    34    30    34    1
    35    31    32    1
    36    31    35    1
    37    32    33    1
    38    32    36    1
    39    33    41    1
    40    33    37    1
    41    41    42    1
    42    34    38    1
    43    35    39    1
    44    36    40    1
    45    42    43    1
@<TRIPOS>MOLECULE
GDU
 43 45 0 0 0
SMALL
GASTEIGER

@<TRIPOS>ATOM
      1 P          22.6067   73.1759   -4.7278 P.3     1  UNL1        0.2189
      2 O          22.9171   73.8930   -5.9844 O.2     1  UNL1       -0.5170
      3 O          23.8149   72.1734   -4.3697 O.3     1  UNL1       -0.4371
      4 O          22.4198   74.2386   -3.5351 O.3     1  UNL1       -0.3112
      5 C          21.0657   74.1308   -3.0933 C.3     1  UNL1        0.1811
      6 C          22.0097   73.7786    0.3581 C.3     1  UNL1        0.2383
      7 C          22.9065   74.9249   -0.1756 C.3     1  UNL1        0.1895
      8 O          23.2082   75.8613    0.8615 O.3     1  UNL1       -0.3779
      9 C          22.0005   75.5697   -1.2566 C.3     1  UNL1        0.1713
     10 C          20.9857   74.4642   -1.6024 C.3     1  UNL1        0.1764
     11 O          21.3293   73.3052   -0.8236 O.3     1  UNL1       -0.3308
     12 O          21.3368   76.7207   -0.7306 O.3     1  UNL1       -0.3794
     13 H          23.7663   76.5453    0.4658 H       1  UNL1        0.2106
     14 H          22.0257   77.3505   -0.4786 H       1  UNL1        0.2105
     15 N          22.8247   72.7139    0.9455 N.ar    1  UNL1       -0.2551
     16 C          22.5932   72.3170    2.2092 C.ar    1  UNL1        0.3323
     17 N          23.3258   71.3378    2.7717 N.ar    1  UNL1       -0.2743
     18 C          24.3148   70.7437    2.0766 C.ar    1  UNL1        0.2626
     19 C          24.5738   71.1555    0.7463 C.ar    1  UNL1        0.0795
     20 C          23.8212   72.1369    0.2051 C.ar    1  UNL1        0.0869
     21 O          21.7042   72.8433    2.8485 O.2     1  UNL1       -0.2464
     22 O          24.9816   69.8606    2.5865 O.2     1  UNL1       -0.2670
     23 H          23.1421   71.0610    3.6835 H       1  UNL1        0.1734
     24 O          21.2483   72.3319   -4.9141 O.3     1  UNL1       -0.2703
     25 P          20.6872   72.6694   -6.3842 P.3     1  UNL1        0.2208
     26 O          20.8702   74.1109   -6.6629 O.2     1  UNL1       -0.5170
     27 O          21.4942   71.8052   -7.4778 O.3     1  UNL1       -0.4371
     28 O          19.1222   72.3016   -6.4600 O.3     1  UNL1       -0.2858
     29 C          19.0375   70.9061   -6.7517 C.3     1  UNL1        0.2704
     30 C          18.1673   70.6971   -7.9919 C.3     1  UNL1        0.1967
     31 C          16.7754   71.2800   -7.7284 C.3     1  UNL1        0.1715
     32 C          16.2251   70.6688   -6.4349 C.3     1  UNL1        0.1694
     33 C          17.2427   70.8820   -5.3114 C.3     1  UNL1        0.1761
     34 O          18.7610   71.3588   -9.1103 O.3     1  UNL1       -0.3775
     35 O          15.9078   70.9631   -8.8190 O.3     1  UNL1       -0.3794
     36 O          16.0011   69.2710   -6.6243 O.3     1  UNL1       -0.3794
     37 O          18.4656   70.2235   -5.6383 O.3     1  UNL1       -0.3258
     38 H          19.6357   70.9660   -9.2347 H       1  UNL1        0.2106
     39 H          16.2980   71.3557   -9.6102 H       1  UNL1        0.2105
     40 H          15.3606   69.1850   -7.3424 H       1  UNL1        0.2105
     41 C          16.6878   70.3055   -4.0069 C.3     1  UNL1        0.1693
     42 O          17.0123   68.9166   -3.9249 O.3     1  UNL1       -0.3794
     43 H          16.6464   68.5925   -3.0904 H       1  UNL1        0.2105
@<TRIPOS>BOND
     1    15    16   ar
     2    15    20   ar
     3    15     6    1
     4    16    17   ar
     5    16    21    2
     6    17    18   ar
     7    17    23    1
     8    18    19   ar
     9    18    22    2
    10    19    20   ar
    11     6     7    1
    12     6    11    1
    13     7     8    1
    14     7     9    1
    15     8    13    1
    16     9    10    1
    17     9    12    1
    18    10    11    1
    19    10     5    1
    20    12    14    1
    21     5     4    1
    22     4     1    1
    23     1     2    2
    24     1     3    1
    25     1    24    1
    26    24    25    1
    27    25    26    2
    28    25    27    1
    29    25    28    1
    30    28    29    1
    31    29    30    1
    32    29    37    1
    33    30    31    1
    34    30    34    1
    35    31    32    1
    36    31    35    1
    37    32    33    1
    38    32    36    1
    39    33    41    1
    40    33    37    1
    41    41    42    1
    42    34    38    1
    43    35    39    1
    44    36    40    1
    45    42    43    1
