@<TRIPOS>MOLECULE
*****
 43 45 0 0 0
SMALL
GASTEIGER

@<TRIPOS>ATOM
      1 P          22.9992   71.5419   -2.9708 P.3     1  UNL1        0.2189
      2 O          23.7378   72.9249   -3.3699 O.co2   1  UNL1       -0.4371
      3 O          23.8253   70.3041   -3.1624 O.2     1  UNL1       -0.5170
      4 O          21.6079   71.5927   -3.7952 O.3     1  UNL1       -0.3112
      5 C          20.6731   70.5442   -3.6090 C.3     1  UNL1        0.1811
      6 O          18.9217   71.7972   -4.6750 O.3     1  UNL1       -0.3308
      7 O          17.1149   70.7413   -2.5276 O.3     1  UNL1       -0.3794
      8 O          16.5162   69.1372   -4.6500 O.3     1  UNL1       -0.3779
      9 C          18.2040   70.0980   -3.1873 C.3     1  UNL1        0.1713
     10 C          17.8083   69.7066   -4.5958 C.3     1  UNL1        0.1895
     11 C          19.2836   71.1432   -3.4391 C.3     1  UNL1        0.1764
     12 C          17.8929   71.0353   -5.3276 C.3     1  UNL1        0.2383
     13 H          16.4129   70.0935   -2.3559 H       1  UNL1        0.2105
     14 H          16.5139   68.2940   -4.1706 H       1  UNL1        0.2106
     15 O          16.0360   70.4676   -7.3789 O.2     1  UNL1       -0.2464
     16 O          19.3280   70.4477  -10.6044 O.2     1  UNL1       -0.2670
     17 N          18.2373   70.8769   -6.7124 N.ar    1  UNL1       -0.2551
     18 N          17.6767   70.4583   -8.9833 N.ar    1  UNL1       -0.2743
     19 C          17.2292   70.5921   -7.6627 C.ar    1  UNL1        0.3323
     20 C          19.5619   71.0045   -7.1160 C.ar    1  UNL1        0.0869
     21 C          19.9724   70.8727   -8.3791 C.ar    1  UNL1        0.0795
     22 C          18.9821   70.5747   -9.4339 C.ar    1  UNL1        0.2626
     23 H          16.9920   70.2594   -9.6626 H       1  UNL1        0.1734
     24 O          22.5287   71.8076   -1.4473 O.3     1  UNL1       -0.2703
     25 P          22.3623   70.7976   -0.1963 P.3     1  UNL1        0.2208
     26 O          23.7324   69.9378   -0.2287 O.co2   1  UNL1       -0.4371
     27 O          21.1106   69.9696   -0.2362 O.2     1  UNL1       -0.5170
     28 O          22.5014   71.7372    1.1086 O.3     1  UNL1       -0.2858
     29 O          21.4881   72.3189    3.1706 O.3     1  UNL1       -0.3258
     30 O          21.1926   75.9573    1.2405 O.3     1  UNL1       -0.3794
     31 O          23.0879   75.6337    3.3738 O.3     1  UNL1       -0.3794
     32 O          20.7835   73.5017   -0.2368 O.3     1  UNL1       -0.3775
     33 C          21.8016   74.7091    1.5818 C.3     1  UNL1        0.1715
     34 C          22.0538   74.6953    3.0907 C.3     1  UNL1        0.1694
     35 C          20.8643   73.5708    1.1828 C.3     1  UNL1        0.1967
     36 C          22.4565   73.2949    3.5722 C.3     1  UNL1        0.1761
     37 C          21.3296   72.2298    1.7532 C.3     1  UNL1        0.2704
     38 H          21.7828   76.6843    1.4908 H       1  UNL1        0.2105
     39 H          22.8212   76.5137    3.0643 H       1  UNL1        0.2105
     40 H          20.4876   74.3565   -0.5856 H       1  UNL1        0.2106
     41 O          21.2662   72.9896    5.6213 O.3     1  UNL1       -0.3794
     42 C          22.5596   73.2210    5.0941 C.3     1  UNL1        0.1693
     43 H          21.3164   72.9399    6.5892 H       1  UNL1        0.2105
@<TRIPOS>UNITY_ATOM_ATTR
2 1
charge -1
26 1
charge -1
@<TRIPOS>BOND
     1    25    28    1
     2    25    24    1
     3    25    26    1
     4    25    27    2
     5     1     4    1
     6     1    24    1
     7     1     2    1
     8     1     3    2
     9     6    11    1
    10     6    12    1
    11    29    36    1
    12    29    37    1
    13     7     9    1
    14     7    13    1
    15     8    10    1
    16     8    14    1
    17    28    37    1
    18     4     5    1
    19    30    33    1
    20    30    38    1
    21    31    34    1
    22    31    39    1
    23    32    35    1
    24    32    40    1
    25    41    42    1
    26    41    43    1
    27    15    19    2
    28    16    22    2
    29    17    12    1
    30    17    19   ar
    31    17    20   ar
    32    18    19   ar
    33    18    22   ar
    34    18    23    1
    35     9    10    1
    36     9    11    1
    37    10    12    1
    38    11     5    1
    39    33    34    1
    40    33    35    1
    41    34    36    1
    42    35    37    1
    43    36    42    1
    44    20    21   ar
    45    21    22   ar
@<TRIPOS>MOLECULE
*****
 43 45 0 0 0
SMALL
GASTEIGER

@<TRIPOS>ATOM
      1 P          21.6877   73.7508   -5.6530 P.3     1  UNL1        0.2189
      2 O          20.6550   74.4978   -4.6565 O.co2   1  UNL1       -0.4371
      3 O          22.8572   74.5817   -6.0927 O.2     1  UNL1       -0.5170
      4 O          20.7429   73.1845   -6.8381 O.3     1  UNL1       -0.3112
      5 C          21.3436   72.4434   -7.8859 C.3     1  UNL1        0.1811
      6 O          19.7723   70.6463   -8.1609 O.3     1  UNL1       -0.3308
      7 O          18.3565   72.4318  -10.1098 O.3     1  UNL1       -0.3794
      8 O          16.8400   72.6890   -7.8580 O.3     1  UNL1       -0.3779
      9 C          19.0343   72.7729   -8.9017 C.3     1  UNL1        0.1713
     10 C          18.2064   72.3647   -7.7010 C.3     1  UNL1        0.1895
     11 C          20.2504   71.8640   -8.7733 C.3     1  UNL1        0.1764
     12 C          18.4490   70.8660   -7.6458 C.3     1  UNL1        0.2383
     13 H          17.5761   72.9994  -10.2139 H       1  UNL1        0.2105
     14 H          16.7376   73.6530   -7.8876 H       1  UNL1        0.2106
     15 O          16.1912   69.5638   -6.5575 O.2     1  UNL1       -0.2464
     16 O          18.2869   68.9232   -2.5030 O.2     1  UNL1       -0.2670
     17 N          18.3773   70.3485   -6.3085 N.ar    1  UNL1       -0.2551
     18 N          17.2366   69.2457   -4.5396 N.ar    1  UNL1       -0.2743
     19 C          17.1964   69.7125   -5.8596 C.ar    1  UNL1        0.3323
     20 C          19.4701   70.4737   -5.4575 C.ar    1  UNL1        0.0869
     21 C          19.4918   70.0243   -4.2010 C.ar    1  UNL1        0.0795
     22 C          18.2981   69.3474   -3.6544 C.ar    1  UNL1        0.2626
     23 H          16.4249   68.7995   -4.2050 H       1  UNL1        0.1734
     24 O          22.0820   72.4148   -4.8329 O.3     1  UNL1       -0.2703
     25 P          23.0496   72.1998   -3.5560 P.3     1  UNL1        0.2208
     26 O          24.2849   73.2012   -3.8537 O.co2   1  UNL1       -0.4371
     27 O          23.4520   70.7725   -3.3222 O.2     1  UNL1       -0.5170
     28 O          22.2593   72.8821   -2.3252 O.3     1  UNL1       -0.2858
     29 O          21.5231   71.1652   -0.8668 O.3     1  UNL1       -0.3258
     30 O          19.7576   74.4061    0.9853 O.3     1  UNL1       -0.3794
     31 O          22.0261   73.1373    2.2067 O.3     1  UNL1       -0.3794
     32 O          19.8584   74.2728   -1.9047 O.3     1  UNL1       -0.3775
     33 C          20.7760   73.7196    0.2525 C.3     1  UNL1        0.1715
     34 C          21.2995   72.5724    1.1190 C.3     1  UNL1        0.1694
     35 C          20.1797   73.1827   -1.0474 C.3     1  UNL1        0.1967
     36 C          22.1991   71.6309    0.3070 C.3     1  UNL1        0.1761
     37 C          21.1360   72.2184   -1.7515 C.3     1  UNL1        0.2704
     38 H          20.1298   74.7499    1.8116 H       1  UNL1        0.2105
     39 H          21.4468   73.7300    2.7110 H       1  UNL1        0.2105
     40 H          19.2523   74.8757   -1.4475 H       1  UNL1        0.2106
     41 O          22.7072   69.2978    0.2197 O.3     1  UNL1       -0.3794
     42 C          22.6046   70.3954    1.1079 C.3     1  UNL1        0.1693
     43 H          22.9649   68.5044    0.7155 H       1  UNL1        0.2105
@<TRIPOS>UNITY_ATOM_ATTR
2 1
charge -1
26 1
charge -1
@<TRIPOS>BOND
     1    25    28    1
     2    25    24    1
     3    25    26    1
     4    25    27    2
     5     1     4    1
     6     1    24    1
     7     1     2    1
     8     1     3    2
     9     6    11    1
    10     6    12    1
    11    29    36    1
    12    29    37    1
    13     7     9    1
    14     7    13    1
    15     8    10    1
    16     8    14    1
    17    28    37    1
    18     4     5    1
    19    30    33    1
    20    30    38    1
    21    31    34    1
    22    31    39    1
    23    32    35    1
    24    32    40    1
    25    41    42    1
    26    41    43    1
    27    15    19    2
    28    16    22    2
    29    17    12    1
    30    17    19   ar
    31    17    20   ar
    32    18    19   ar
    33    18    22   ar
    34    18    23    1
    35     9    10    1
    36     9    11    1
    37    10    12    1
    38    11     5    1
    39    33    34    1
    40    33    35    1
    41    34    36    1
    42    35    37    1
    43    36    42    1
    44    20    21   ar
    45    21    22   ar
@<TRIPOS>MOLECULE
*****
 43 45 0 0 0
SMALL
GASTEIGER

@<TRIPOS>ATOM
      1 P          21.7502   70.5534   -1.1755 P.3     1  UNL1        0.2189
      2 O          23.3591   70.3959   -1.1104 O.co2   1  UNL1       -0.4371
      3 O          21.0325   70.2631    0.1098 O.2     1  UNL1       -0.5170
      4 O          21.3216   69.6411   -2.4412 O.3     1  UNL1       -0.3112
      5 C          20.8875   70.2880   -3.6247 C.3     1  UNL1        0.1811
      6 O          19.1251   71.6190   -4.5715 O.3     1  UNL1       -0.3308
      7 O          17.3781   70.5143   -2.3993 O.3     1  UNL1       -0.3794
      8 O          16.6640   69.0103   -4.5590 O.3     1  UNL1       -0.3779
      9 C          18.4269   69.8760   -3.1258 C.3     1  UNL1        0.1713
     10 C          17.9695   69.5502   -4.5323 C.3     1  UNL1        0.1895
     11 C          19.5191   70.9080   -3.3774 C.3     1  UNL1        0.1764
     12 C          18.0557   70.9055   -5.2134 C.3     1  UNL1        0.2383
     13 H          16.6689   69.8747   -2.2264 H       1  UNL1        0.2105
     14 H          16.6612   68.1486   -4.1137 H       1  UNL1        0.2106
     15 O          16.1071   70.4871   -7.2149 O.2     1  UNL1       -0.2464
     16 O          19.2766   70.5015  -10.5609 O.2     1  UNL1       -0.2670
     17 N          18.3438   70.7964   -6.6158 N.ar    1  UNL1       -0.2551
     18 N          17.6869   70.4948   -8.8794 N.ar    1  UNL1       -0.2743
     19 C          17.2926   70.5855   -7.5383 C.ar    1  UNL1        0.3323
     20 C          19.6563   70.8987   -7.0636 C.ar    1  UNL1        0.0869
     21 C          20.0158   70.8087   -8.3458 C.ar    1  UNL1        0.0795
     22 C          18.9781   70.5887   -9.3738 C.ar    1  UNL1        0.2626
     23 H          16.9716   70.3476   -9.5400 H       1  UNL1        0.1734
     24 O          21.5546   72.0591   -1.7301 O.3     1  UNL1       -0.2703
     25 P          22.6361   73.1821   -2.1568 P.3     1  UNL1        0.2208
     26 O          21.7187   74.3708   -2.7591 O.co2   1  UNL1       -0.4371
     27 O          23.7008   72.6870   -3.0923 O.2     1  UNL1       -0.5170
     28 O          23.1926   73.7653   -0.7585 O.3     1  UNL1       -0.2858
     29 O          21.5259   73.9901    0.9112 O.3     1  UNL1       -0.3258
     30 O          24.5497   76.1590    2.7010 O.3     1  UNL1       -0.3794
     31 O          23.8604   73.5690    3.7329 O.3     1  UNL1       -0.3794
     32 O          24.1437   76.3367   -0.1596 O.3     1  UNL1       -0.3775
     33 C          23.9953   75.1072    1.9063 C.3     1  UNL1        0.1715
     34 C          23.0612   74.2791    2.7908 C.3     1  UNL1        0.1694
     35 C          23.2265   75.7179    0.7361 C.3     1  UNL1        0.1967
     36 C          22.2274   73.3007    1.9526 C.3     1  UNL1        0.1761
     37 C          22.3920   74.6686   -0.0006 C.3     1  UNL1        0.2704
     38 H          25.0397   75.7780    3.4455 H       1  UNL1        0.2105
     39 H          24.3822   74.1983    4.2554 H       1  UNL1        0.2105
     40 H          24.6656   76.9990    0.3188 H       1  UNL1        0.2106
     41 O          21.8303   71.9483    3.8819 O.3     1  UNL1       -0.3794
     42 C          21.1783   72.5770    2.7938 C.3     1  UNL1        0.1693
     43 H          21.1747   71.4840    4.4263 H       1  UNL1        0.2105
@<TRIPOS>UNITY_ATOM_ATTR
2 1
charge -1
26 1
charge -1
@<TRIPOS>BOND
     1    25    28    1
     2    25    24    1
     3    25    26    1
     4    25    27    2
     5     1     4    1
     6     1    24    1
     7     1     2    1
     8     1     3    2
     9     6    11    1
    10     6    12    1
    11    29    36    1
    12    29    37    1
    13     7     9    1
    14     7    13    1
    15     8    10    1
    16     8    14    1
    17    28    37    1
    18     4     5    1
    19    30    33    1
    20    30    38    1
    21    31    34    1
    22    31    39    1
    23    32    35    1
    24    32    40    1
    25    41    42    1
    26    41    43    1
    27    15    19    2
    28    16    22    2
    29    17    12    1
    30    17    19   ar
    31    17    20   ar
    32    18    19   ar
    33    18    22   ar
    34    18    23    1
    35     9    10    1
    36     9    11    1
    37    10    12    1
    38    11     5    1
    39    33    34    1
    40    33    35    1
    41    34    36    1
    42    35    37    1
    43    36    42    1
    44    20    21   ar
    45    21    22   ar
@<TRIPOS>MOLECULE
*****
 43 45 0 0 0
SMALL
GASTEIGER

@<TRIPOS>ATOM
      1 P          21.5990   70.4371   -0.9643 P.3     1  UNL1        0.2189
      2 O          23.0444   70.8852   -1.5365 O.co2   1  UNL1       -0.4371
      3 O          21.6429   69.5674    0.2576 O.2     1  UNL1       -0.5170
      4 O          20.8513   69.8031   -2.2515 O.3     1  UNL1       -0.3112
      5 C          20.5953   70.6408   -3.3653 C.3     1  UNL1        0.1811
      6 O          18.8592   71.8651   -4.4883 O.3     1  UNL1       -0.3308
      7 O          16.9990   70.7701   -2.4071 O.3     1  UNL1       -0.3794
      8 O          16.5032   69.1617   -4.5529 O.3     1  UNL1       -0.3779
      9 C          18.1217   70.1486   -3.0304 C.3     1  UNL1        0.1713
     10 C          17.7821   69.7543   -4.4526 C.3     1  UNL1        0.1895
     11 C          19.1902   71.2140   -3.2421 C.3     1  UNL1        0.1764
     12 C          17.8677   71.0865   -5.1779 C.3     1  UNL1        0.2383
     13 H          16.3034   70.1091   -2.2614 H       1  UNL1        0.2105
     14 H          16.4998   68.3172   -4.0758 H       1  UNL1        0.2106
     15 O          16.1010   70.4454   -7.2864 O.2     1  UNL1       -0.2464
     16 O          19.4943   70.5433  -10.4036 O.2     1  UNL1       -0.2670
     17 N          18.2625   70.9386   -6.5503 N.ar    1  UNL1       -0.2551
     18 N          17.7920   70.4949   -8.8368 N.ar    1  UNL1       -0.2743
     19 C          17.2972   70.6142   -7.5319 C.ar    1  UNL1        0.3323
     20 C          19.5938   71.1152   -6.9113 C.ar    1  UNL1        0.0869
     21 C          20.0497   70.9965   -8.1600 C.ar    1  UNL1        0.0795
     22 C          19.1061   70.6595   -9.2453 C.ar    1  UNL1        0.2626
     23 H          17.1377   70.2690   -9.5373 H       1  UNL1        0.1734
     24 O          20.8362   71.8475   -0.7592 O.3     1  UNL1       -0.2703
     25 P          21.3966   73.3635   -0.7335 P.3     1  UNL1        0.2208
     26 O          20.1285   74.2363   -1.2311 O.co2   1  UNL1       -0.4371
     27 O          22.6460   73.5715   -1.5394 O.2     1  UNL1       -0.5170
     28 O          21.5452   73.7175    0.8342 O.3     1  UNL1       -0.2858
     29 O          23.5764   74.3217    1.8952 O.3     1  UNL1       -0.3258
     30 O          21.6295   72.6227    5.1160 O.3     1  UNL1       -0.3794
     31 O          21.9670   75.4725    5.0055 O.3     1  UNL1       -0.3794
     32 O          21.3543   71.4540    2.4820 O.3     1  UNL1       -0.3775
     33 C          21.7298   73.3658    3.8982 C.3     1  UNL1        0.1715
     34 C          22.6473   74.5654    4.1426 C.3     1  UNL1        0.1694
     35 C          22.3043   72.4628    2.8083 C.3     1  UNL1        0.1967
     36 C          23.0170   75.2578    2.8239 C.3     1  UNL1        0.1761
     37 C          22.6838   73.2580    1.5579 C.3     1  UNL1        0.2704
     38 H          21.2650   73.1902    5.8121 H       1  UNL1        0.2105
     39 H          21.7387   75.0228    5.8343 H       1  UNL1        0.2105
     40 H          21.1224   70.9576    3.2818 H       1  UNL1        0.2106
     41 O          23.5310   77.5711    2.5180 O.3     1  UNL1       -0.3794
     42 C          24.0555   76.3588    3.0275 C.3     1  UNL1        0.1693
     43 H          24.1811   78.2810    2.6411 H       1  UNL1        0.2105
@<TRIPOS>UNITY_ATOM_ATTR
2 1
charge -1
26 1
charge -1
@<TRIPOS>BOND
     1    25    28    1
     2    25    24    1
     3    25    26    1
     4    25    27    2
     5     1     4    1
     6     1    24    1
     7     1     2    1
     8     1     3    2
     9     6    11    1
    10     6    12    1
    11    29    36    1
    12    29    37    1
    13     7     9    1
    14     7    13    1
    15     8    10    1
    16     8    14    1
    17    28    37    1
    18     4     5    1
    19    30    33    1
    20    30    38    1
    21    31    34    1
    22    31    39    1
    23    32    35    1
    24    32    40    1
    25    41    42    1
    26    41    43    1
    27    15    19    2
    28    16    22    2
    29    17    12    1
    30    17    19   ar
    31    17    20   ar
    32    18    19   ar
    33    18    22   ar
    34    18    23    1
    35     9    10    1
    36     9    11    1
    37    10    12    1
    38    11     5    1
    39    33    34    1
    40    33    35    1
    41    34    36    1
    42    35    37    1
    43    36    42    1
    44    20    21   ar
    45    21    22   ar
@<TRIPOS>MOLECULE
*****
 43 45 0 0 0
SMALL
GASTEIGER

@<TRIPOS>ATOM
      1 P          22.9619   72.2210   -2.7617 P.3     1  UNL1        0.2189
      2 O          23.3567   70.7419   -3.2851 O.co2   1  UNL1       -0.4371
      3 O          23.1485   72.4431   -1.2896 O.2     1  UNL1       -0.5170
      4 O          21.4599   72.4428   -3.3209 O.3     1  UNL1       -0.3112
      5 C          20.6676   71.3021   -3.6016 C.3     1  UNL1        0.1811
      6 O          18.7296   72.1768   -4.7208 O.3     1  UNL1       -0.3308
      7 O          17.1284   70.9693   -2.4917 O.3     1  UNL1       -0.3794
      8 O          16.8029   69.1595   -4.5054 O.3     1  UNL1       -0.3779
      9 C          18.3087   70.4771   -3.1241 C.3     1  UNL1        0.1713
     10 C          17.9817   69.9387   -4.5014 C.3     1  UNL1        0.1895
     11 C          19.1978   71.6702   -3.4518 C.3     1  UNL1        0.1764
     12 C          17.8416   71.2150   -5.3135 C.3     1  UNL1        0.2383
     13 H          16.5449   70.2254   -2.2726 H       1  UNL1        0.2105
     14 H          16.9425   68.3591   -3.9757 H       1  UNL1        0.2106
     15 O          16.0500   70.4110   -7.3437 O.2     1  UNL1       -0.2464
     16 O          19.3488   70.5394  -10.5596 O.2     1  UNL1       -0.2670
     17 N          18.2054   71.0309   -6.6902 N.ar    1  UNL1       -0.2551
     18 N          17.6940   70.4758   -8.9433 N.ar    1  UNL1       -0.2743
     19 C          17.2299   70.6242   -7.6301 C.ar    1  UNL1        0.3323
     20 C          19.5167   71.2534   -7.0962 C.ar    1  UNL1        0.0869
     21 C          19.9435   71.1061   -8.3521 C.ar    1  UNL1        0.0795
     22 C          18.9873   70.6837   -9.3958 C.ar    1  UNL1        0.2626
     23 H          17.0321   70.1928   -9.6153 H       1  UNL1        0.1734
     24 O          23.8477   73.1891   -3.7058 O.3     1  UNL1       -0.2703
     25 P          24.2187   74.7563   -3.5681 P.3     1  UNL1        0.2208
     26 O          25.7204   74.8359   -4.1649 O.co2   1  UNL1       -0.4371
     27 O          24.0754   75.3028   -2.1771 O.2     1  UNL1       -0.5170
     28 O          23.3013   75.4920   -4.6736 O.3     1  UNL1       -0.2858
     29 O          23.5495   75.5969   -7.0281 O.3     1  UNL1       -0.3258
     30 O          22.0643   79.3900   -6.3515 O.3     1  UNL1       -0.3794
     31 O          20.3901   77.4115   -7.5888 O.3     1  UNL1       -0.3794
     32 O          23.9381   78.2183   -4.4820 O.3     1  UNL1       -0.3775
     33 C          22.1962   77.9834   -6.1287 C.3     1  UNL1        0.1715
     34 C          21.7953   77.2548   -7.4129 C.3     1  UNL1        0.1694
     35 C          23.6457   77.6698   -5.7626 C.3     1  UNL1        0.1967
     36 C          22.1624   75.7663   -7.3429 C.3     1  UNL1        0.1761
     37 C          23.9168   76.1643   -5.7692 C.3     1  UNL1        0.2704
     38 H          21.1460   79.5959   -6.5839 H       1  UNL1        0.2105
     39 H          20.1716   78.3558   -7.6309 H       1  UNL1        0.2105
     40 H          23.7627   79.1717   -4.4909 H       1  UNL1        0.2106
     41 O          20.5466   74.7024   -8.7450 O.3     1  UNL1       -0.3794
     42 C          21.9161   75.0535   -8.6708 C.3     1  UNL1        0.1693
     43 H          20.3750   74.2481   -9.5852 H       1  UNL1        0.2105
@<TRIPOS>UNITY_ATOM_ATTR
2 1
charge -1
26 1
charge -1
@<TRIPOS>BOND
     1    25    28    1
     2    25    24    1
     3    25    26    1
     4    25    27    2
     5     1     4    1
     6     1    24    1
     7     1     2    1
     8     1     3    2
     9     6    11    1
    10     6    12    1
    11    29    36    1
    12    29    37    1
    13     7     9    1
    14     7    13    1
    15     8    10    1
    16     8    14    1
    17    28    37    1
    18     4     5    1
    19    30    33    1
    20    30    38    1
    21    31    34    1
    22    31    39    1
    23    32    35    1
    24    32    40    1
    25    41    42    1
    26    41    43    1
    27    15    19    2
    28    16    22    2
    29    17    12    1
    30    17    19   ar
    31    17    20   ar
    32    18    19   ar
    33    18    22   ar
    34    18    23    1
    35     9    10    1
    36     9    11    1
    37    10    12    1
    38    11     5    1
    39    33    34    1
    40    33    35    1
    41    34    36    1
    42    35    37    1
    43    36    42    1
    44    20    21   ar
    45    21    22   ar
@<TRIPOS>MOLECULE
*****
 43 45 0 0 0
SMALL
GASTEIGER

@<TRIPOS>ATOM
      1 P          22.6822   71.6378   -2.4402 P.3     1  UNL1        0.2189
      2 O          22.9800   73.2111   -2.6714 O.co2   1  UNL1       -0.4371
      3 O          23.5483   70.7054   -3.2351 O.2     1  UNL1       -0.5170
      4 O          21.0895   71.5030   -2.6912 O.3     1  UNL1       -0.3112
      5 C          20.4927   72.3066   -3.6941 C.3     1  UNL1        0.1811
      6 O          18.3758   72.4782   -4.8180 O.3     1  UNL1       -0.3308
      7 O          17.1975   71.1469   -2.4034 O.3     1  UNL1       -0.3794
      8 O          17.3656   69.0945   -4.1911 O.3     1  UNL1       -0.3779
      9 C          18.4611   70.9273   -3.0283 C.3     1  UNL1        0.1713
     10 C          18.2815   70.1624   -4.3230 C.3     1  UNL1        0.1895
     11 C          18.9802   72.2718   -3.5225 C.3     1  UNL1        0.1764
     12 C          17.7835   71.2470   -5.2632 C.3     1  UNL1        0.2383
     13 H          16.8461   70.3023   -2.0793 H       1  UNL1        0.2105
     14 H          17.7278   68.4309   -3.5835 H       1  UNL1        0.2106
     15 O          16.0116   70.4230   -7.3026 O.2     1  UNL1       -0.2464
     16 O          19.3742   70.3671  -10.4540 O.2     1  UNL1       -0.2670
     17 N          18.1690   71.0100   -6.6258 N.ar    1  UNL1       -0.2551
     18 N          17.6873   70.3960   -8.8702 N.ar    1  UNL1       -0.2743
     19 C          17.2019   70.5977   -7.5718 C.ar    1  UNL1        0.3323
     20 C          19.4931   71.1870   -7.0121 C.ar    1  UNL1        0.0869
     21 C          19.9402   70.9892   -8.2540 C.ar    1  UNL1        0.0795
     22 C          18.9940   70.5574   -9.3029 C.ar    1  UNL1        0.2626
     23 H          17.0316   70.1081   -9.5461 H       1  UNL1        0.1734
     24 O          22.8125   71.4750   -0.8373 O.3     1  UNL1       -0.2703
     25 P          22.1156   70.4338    0.1841 P.3     1  UNL1        0.2208
     26 O          23.3720   69.6245    0.8037 O.co2   1  UNL1       -0.4371
     27 O          21.0675   69.5625   -0.4454 O.2     1  UNL1       -0.5170
     28 O          21.5812   71.3504    1.4004 O.3     1  UNL1       -0.2858
     29 O          22.0941   73.5756    0.7664 O.3     1  UNL1       -0.3258
     30 O          20.3017   74.3242    4.4102 O.3     1  UNL1       -0.3794
     31 O          18.9121   74.9825    1.9846 O.3     1  UNL1       -0.3794
     32 O          22.0165   72.0138    4.0921 O.3     1  UNL1       -0.3775
     33 C          20.4962   73.6386    3.1702 C.3     1  UNL1        0.1715
     34 C          20.2945   74.6405    2.0316 C.3     1  UNL1        0.1694
     35 C          21.9104   73.0622    3.1350 C.3     1  UNL1        0.1967
     36 C          20.7451   74.0507    0.6884 C.3     1  UNL1        0.1761
     37 C          22.2758   72.5472    1.7417 C.3     1  UNL1        0.2704
     38 H          19.4055   74.6922    4.4392 H       1  UNL1        0.2105
     39 H          18.6402   75.3532    2.8389 H       1  UNL1        0.2105
     40 H          21.7830   72.3526    4.9699 H       1  UNL1        0.2106
     41 O          20.7433   76.3770    0.1433 O.3     1  UNL1       -0.3794
     42 C          20.7006   75.0851   -0.4341 C.3     1  UNL1        0.1693
     43 H          20.7159   77.0456   -0.5595 H       1  UNL1        0.2105
@<TRIPOS>UNITY_ATOM_ATTR
2 1
charge -1
26 1
charge -1
@<TRIPOS>BOND
     1    25    28    1
     2    25    24    1
     3    25    26    1
     4    25    27    2
     5     1     4    1
     6     1    24    1
     7     1     2    1
     8     1     3    2
     9     6    11    1
    10     6    12    1
    11    29    36    1
    12    29    37    1
    13     7     9    1
    14     7    13    1
    15     8    10    1
    16     8    14    1
    17    28    37    1
    18     4     5    1
    19    30    33    1
    20    30    38    1
    21    31    34    1
    22    31    39    1
    23    32    35    1
    24    32    40    1
    25    41    42    1
    26    41    43    1
    27    15    19    2
    28    16    22    2
    29    17    12    1
    30    17    19   ar
    31    17    20   ar
    32    18    19   ar
    33    18    22   ar
    34    18    23    1
    35     9    10    1
    36     9    11    1
    37    10    12    1
    38    11     5    1
    39    33    34    1
    40    33    35    1
    41    34    36    1
    42    35    37    1
    43    36    42    1
    44    20    21   ar
    45    21    22   ar
@<TRIPOS>MOLECULE
*****
 43 45 0 0 0
SMALL
GASTEIGER

@<TRIPOS>ATOM
      1 P          22.9353   72.0106   -3.0533 P.3     1  UNL1        0.2189
      2 O          23.6509   70.5704   -3.2294 O.co2   1  UNL1       -0.4371
      3 O          22.7948   72.4792   -1.6348 O.2     1  UNL1       -0.5170
      4 O          21.5549   71.8626   -3.8843 O.3     1  UNL1       -0.3112
      5 C          20.7059   70.7656   -3.5952 C.3     1  UNL1        0.1811
      6 O          18.8687   71.8807   -4.6698 O.3     1  UNL1       -0.3308
      7 O          17.1487   70.7424   -2.4934 O.3     1  UNL1       -0.3794
      8 O          16.6469   69.0665   -4.5853 O.3     1  UNL1       -0.3779
      9 C          18.2747   70.1624   -3.1498 C.3     1  UNL1        0.1713
     10 C          17.8983   69.7219   -4.5491 C.3     1  UNL1        0.1895
     11 C          19.2805   71.2731   -3.4258 C.3     1  UNL1        0.1764
     12 C          17.8896   71.0408   -5.3030 C.3     1  UNL1        0.2383
     13 H          16.4926   70.0521   -2.3065 H       1  UNL1        0.2105
     14 H          16.7037   68.2332   -4.0922 H       1  UNL1        0.2106
     15 O          16.0345   70.4837   -7.3587 O.2     1  UNL1       -0.2464
     16 O          19.3328   70.4535  -10.5776 O.2     1  UNL1       -0.2670
     17 N          18.2361   70.8827   -6.6873 N.ar    1  UNL1       -0.2551
     18 N          17.6783   70.4693   -8.9598 N.ar    1  UNL1       -0.2743
     19 C          17.2287   70.6034   -7.6400 C.ar    1  UNL1        0.3323
     20 C          19.5621   71.0050   -7.0881 C.ar    1  UNL1        0.0869
     21 C          19.9746   70.8730   -8.3505 C.ar    1  UNL1        0.0795
     22 C          18.9851   70.5806   -9.4076 C.ar    1  UNL1        0.2626
     23 H          16.9942   70.2742   -9.6408 H       1  UNL1        0.1734
     24 O          23.8251   72.9763   -3.9959 O.3     1  UNL1       -0.2703
     25 P          23.9882   74.5844   -4.0148 P.3     1  UNL1        0.2208
     26 O          25.5918   74.7952   -3.9738 O.co2   1  UNL1       -0.4371
     27 O          23.2425   75.2915   -2.9203 O.2     1  UNL1       -0.5170
     28 O          23.5577   75.0211   -5.5077 O.3     1  UNL1       -0.2858
     29 O          21.6193   76.1021   -6.3389 O.3     1  UNL1       -0.3258
     30 O          22.2173   73.3831   -9.3885 O.3     1  UNL1       -0.3794
     31 O          22.7791   76.1635   -9.8375 O.3     1  UNL1       -0.3794
     32 O          22.6992   72.6026   -6.6429 O.3     1  UNL1       -0.3775
     33 C          22.6120   74.2921   -8.3573 C.3     1  UNL1        0.1715
     34 C          22.0645   75.6780   -8.7043 C.3     1  UNL1        0.1694
     35 C          22.0466   73.8093   -7.0229 C.3     1  UNL1        0.1967
     36 C          22.2158   76.6452   -7.5225 C.3     1  UNL1        0.1761
     37 C          22.2046   74.8652   -5.9274 C.3     1  UNL1        0.2704
     38 H          22.5735   73.6836  -10.2384 H       1  UNL1        0.2105
     39 H          22.6758   75.5434  -10.5764 H       1  UNL1        0.2105
     40 H          22.5917   71.9422   -7.3445 H       1  UNL1        0.2106
     41 O          20.5016   78.1629   -6.8392 O.3     1  UNL1       -0.3794
     42 C          21.5354   77.9859   -7.7901 C.3     1  UNL1        0.1693
     43 H          20.0598   79.0124   -6.9971 H       1  UNL1        0.2105
@<TRIPOS>UNITY_ATOM_ATTR
2 1
charge -1
26 1
charge -1
@<TRIPOS>BOND
     1    25    28    1
     2    25    24    1
     3    25    26    1
     4    25    27    2
     5     1     4    1
     6     1    24    1
     7     1     2    1
     8     1     3    2
     9     6    11    1
    10     6    12    1
    11    29    36    1
    12    29    37    1
    13     7     9    1
    14     7    13    1
    15     8    10    1
    16     8    14    1
    17    28    37    1
    18     4     5    1
    19    30    33    1
    20    30    38    1
    21    31    34    1
    22    31    39    1
    23    32    35    1
    24    32    40    1
    25    41    42    1
    26    41    43    1
    27    15    19    2
    28    16    22    2
    29    17    12    1
    30    17    19   ar
    31    17    20   ar
    32    18    19   ar
    33    18    22   ar
    34    18    23    1
    35     9    10    1
    36     9    11    1
    37    10    12    1
    38    11     5    1
    39    33    34    1
    40    33    35    1
    41    34    36    1
    42    35    37    1
    43    36    42    1
    44    20    21   ar
    45    21    22   ar
@<TRIPOS>MOLECULE
*****
 43 45 0 0 0
SMALL
GASTEIGER

@<TRIPOS>ATOM
      1 P          22.9751   71.8521   -3.3271 P.3     1  UNL1        0.2189
      2 O          23.7545   72.8947   -4.2877 O.co2   1  UNL1       -0.4371
      3 O          23.6658   70.5348   -3.1291 O.2     1  UNL1       -0.5170
      4 O          21.4880   71.7775   -3.9604 O.3     1  UNL1       -0.3112
      5 C          20.6383   70.7139   -3.5674 C.3     1  UNL1        0.1811
      6 O          18.8356   71.8622   -4.6652 O.3     1  UNL1       -0.3308
      7 O          17.0645   70.7420   -2.5207 O.3     1  UNL1       -0.3794
      8 O          16.5690   69.0830   -4.6275 O.3     1  UNL1       -0.3779
      9 C          18.1913   70.1470   -3.1622 C.3     1  UNL1        0.1713
     10 C          17.8298   69.7184   -4.5691 C.3     1  UNL1        0.1895
     11 C          19.2185   71.2430   -3.4177 C.3     1  UNL1        0.1764
     12 C          17.8534   71.0405   -5.3171 C.3     1  UNL1        0.2383
     13 H          16.3949   70.0612   -2.3470 H       1  UNL1        0.2105
     14 H          16.6051   68.2468   -4.1373 H       1  UNL1        0.2106
     15 O          16.0222   70.5180   -7.4032 O.2     1  UNL1       -0.2464
     16 O          19.3688   70.4529  -10.5714 O.2     1  UNL1       -0.2670
     17 N          18.2187   70.8827   -6.6966 N.ar    1  UNL1       -0.2551
     18 N          17.6900   70.4862   -8.9791 N.ar    1  UNL1       -0.2743
     19 C          17.2222   70.6216   -7.6658 C.ar    1  UNL1        0.3323
     20 C          19.5524   70.9875   -7.0766 C.ar    1  UNL1        0.0869
     21 C          19.9822   70.8545   -8.3331 C.ar    1  UNL1        0.0795
     22 C          19.0050   70.5805   -9.4064 C.ar    1  UNL1        0.2626
     23 H          17.0137   70.3036   -9.6712 H       1  UNL1        0.1734
     24 O          22.7505   72.7043   -1.9721 O.3     1  UNL1       -0.2703
     25 P          22.2964   74.2392   -1.7463 P.3     1  UNL1        0.2208
     26 O          20.8201   74.2902   -2.4063 O.co2   1  UNL1       -0.4371
     27 O          23.2568   75.2526   -2.2982 O.2     1  UNL1       -0.5170
     28 O          22.0371   74.3590   -0.1578 O.3     1  UNL1       -0.2858
     29 O          23.5222   74.5690    1.6771 O.3     1  UNL1       -0.3258
     30 O          20.7524   72.0101    3.3596 O.3     1  UNL1       -0.3794
     31 O          20.8526   74.7506    4.2127 O.3     1  UNL1       -0.3794
     32 O          21.4973   71.7056    0.5789 O.3     1  UNL1       -0.3775
     33 C          21.1957   73.0867    2.5290 C.3     1  UNL1        0.1715
     34 C          21.8643   74.1356    3.4198 C.3     1  UNL1        0.1694
     35 C          22.1854   72.5470    1.4982 C.3     1  UNL1        0.1967
     36 C          22.5987   75.1891    2.5796 C.3     1  UNL1        0.1761
     37 C          22.8965   73.6775    0.7522 C.3     1  UNL1        0.2704
     38 H          20.1233   72.3460    4.0161 H       1  UNL1        0.2105
     39 H          20.3963   74.0745    4.7380 H       1  UNL1        0.2105
     40 H          21.0516   70.9939    1.0635 H       1  UNL1        0.2106
     41 O          23.9052   75.4423    4.5640 O.3     1  UNL1       -0.3794
     42 C          23.4032   76.1540    3.4478 C.3     1  UNL1        0.1693
     43 H          24.4196   76.0437    5.1255 H       1  UNL1        0.2105
@<TRIPOS>UNITY_ATOM_ATTR
2 1
charge -1
26 1
charge -1
@<TRIPOS>BOND
     1    25    28    1
     2    25    24    1
     3    25    26    1
     4    25    27    2
     5     1     4    1
     6     1    24    1
     7     1     2    1
     8     1     3    2
     9     6    11    1
    10     6    12    1
    11    29    36    1
    12    29    37    1
    13     7     9    1
    14     7    13    1
    15     8    10    1
    16     8    14    1
    17    28    37    1
    18     4     5    1
    19    30    33    1
    20    30    38    1
    21    31    34    1
    22    31    39    1
    23    32    35    1
    24    32    40    1
    25    41    42    1
    26    41    43    1
    27    15    19    2
    28    16    22    2
    29    17    12    1
    30    17    19   ar
    31    17    20   ar
    32    18    19   ar
    33    18    22   ar
    34    18    23    1
    35     9    10    1
    36     9    11    1
    37    10    12    1
    38    11     5    1
    39    33    34    1
    40    33    35    1
    41    34    36    1
    42    35    37    1
    43    36    42    1
    44    20    21   ar
    45    21    22   ar
@<TRIPOS>MOLECULE
*****
 43 45 0 0 0
SMALL
GASTEIGER

@<TRIPOS>ATOM
      1 P          21.0261   73.0176   -4.3832 P.3     1  UNL1        0.2189
      2 O          19.5751   73.6917   -4.1429 O.co2   1  UNL1       -0.4371
      3 O          22.1645   73.6962   -3.6798 O.2     1  UNL1       -0.5170
      4 O          21.1498   72.9260   -5.9939 O.3     1  UNL1       -0.3112
      5 C          22.3622   73.3345   -6.6031 C.3     1  UNL1        0.1811
      6 O          21.2097   72.8347   -8.6515 O.3     1  UNL1       -0.3308
      7 O          21.5620   75.7322   -9.3379 O.3     1  UNL1       -0.3794
      8 O          18.9716   75.6326   -8.4914 O.3     1  UNL1       -0.3779
      9 C          21.3125   75.1295   -8.0691 C.3     1  UNL1        0.1713
     10 C          19.8718   74.6716   -7.9787 C.3     1  UNL1        0.1895
     11 C          22.0698   73.8084   -8.0202 C.3     1  UNL1        0.1764
     12 C          19.8948   73.3946   -8.8014 C.3     1  UNL1        0.2383
     13 H          21.0888   76.5779   -9.3926 H       1  UNL1        0.2105
     14 H          18.9934   76.4261   -7.9339 H       1  UNL1        0.2106
     15 O          19.2048   71.0435  -10.2065 O.2     1  UNL1       -0.2464
     16 O          16.1617   69.7895   -6.9804 O.2     1  UNL1       -0.2670
     17 N          18.9256   72.4357   -8.3515 N.ar    1  UNL1       -0.2551
     18 N          17.6903   70.4209   -8.5989 N.ar    1  UNL1       -0.2743
     19 C          18.6517   71.2887   -9.1324 C.ar    1  UNL1        0.3323
     20 C          18.2584   72.6371   -7.1481 C.ar    1  UNL1        0.0869
     21 C          17.3433   71.8007   -6.6539 C.ar    1  UNL1        0.0795
     22 C          16.9989   70.5781   -7.4081 C.ar    1  UNL1        0.2626
     23 H          17.4829   69.6152   -9.1259 H       1  UNL1        0.1734
     24 O          20.7883   71.4788   -3.9490 O.3     1  UNL1       -0.2703
     25 P          21.5372   70.5575   -2.8520 P.3     1  UNL1        0.2208
     26 O          23.0927   70.6539   -3.2862 O.co2   1  UNL1       -0.4371
     27 O          21.0058   69.1564   -2.7592 O.2     1  UNL1       -0.5170
     28 O          21.4443   71.4004   -1.4788 O.3     1  UNL1       -0.2858
     29 O          23.1339   72.8129   -0.6032 O.3     1  UNL1       -0.3258
     30 O          21.3770   71.6138    2.9360 O.3     1  UNL1       -0.3794
     31 O          20.9780   74.2969    1.9927 O.3     1  UNL1       -0.3794
     32 O          21.6784   69.7268    0.7616 O.3     1  UNL1       -0.3775
     33 C          21.4043   71.9844    1.5549 C.3     1  UNL1        0.1715
     34 C          21.9523   73.4091    1.4515 C.3     1  UNL1        0.1694
     35 C          22.2986   71.0077    0.7936 C.3     1  UNL1        0.1967
     36 C          22.2617   73.7792   -0.0053 C.3     1  UNL1        0.1761
     37 C          22.5841   71.4942   -0.6283 C.3     1  UNL1        0.2704
     38 H          20.8104   72.2297    3.4250 H       1  UNL1        0.2105
     39 H          20.7913   74.0520    2.9127 H       1  UNL1        0.2105
     40 H          21.5031   69.4298    1.6677 H       1  UNL1        0.2106
     41 O          23.5218   75.2460   -1.4088 O.3     1  UNL1       -0.3794
     42 C          22.9555   75.1351   -0.1160 C.3     1  UNL1        0.1693
     43 H          23.9665   76.1043   -1.4938 H       1  UNL1        0.2105
@<TRIPOS>UNITY_ATOM_ATTR
2 1
charge -1
26 1
charge -1
@<TRIPOS>BOND
     1    25    28    1
     2    25    24    1
     3    25    26    1
     4    25    27    2
     5     1     4    1
     6     1    24    1
     7     1     2    1
     8     1     3    2
     9     6    11    1
    10     6    12    1
    11    29    36    1
    12    29    37    1
    13     7     9    1
    14     7    13    1
    15     8    10    1
    16     8    14    1
    17    28    37    1
    18     4     5    1
    19    30    33    1
    20    30    38    1
    21    31    34    1
    22    31    39    1
    23    32    35    1
    24    32    40    1
    25    41    42    1
    26    41    43    1
    27    15    19    2
    28    16    22    2
    29    17    12    1
    30    17    19   ar
    31    17    20   ar
    32    18    19   ar
    33    18    22   ar
    34    18    23    1
    35     9    10    1
    36     9    11    1
    37    10    12    1
    38    11     5    1
    39    33    34    1
    40    33    35    1
    41    34    36    1
    42    35    37    1
    43    36    42    1
    44    20    21   ar
    45    21    22   ar
@<TRIPOS>MOLECULE
*****
 43 45 0 0 0
SMALL
GASTEIGER

@<TRIPOS>ATOM
      1 P          22.9356   71.9671   -3.0282 P.3     1  UNL1        0.2189
      2 O          23.5602   70.4848   -3.2013 O.co2   1  UNL1       -0.4371
      3 O          22.8722   72.4671   -1.6149 O.2     1  UNL1       -0.5170
      4 O          21.5208   71.8859   -3.8090 O.3     1  UNL1       -0.3112
      5 C          20.6678   70.7845   -3.5499 C.3     1  UNL1        0.1811
      6 O          18.8401   71.8966   -4.6438 O.3     1  UNL1       -0.3308
      7 O          17.0988   70.7536   -2.4869 O.3     1  UNL1       -0.3794
      8 O          16.6231   69.0780   -4.5851 O.3     1  UNL1       -0.3779
      9 C          18.2330   70.1762   -3.1313 C.3     1  UNL1        0.1713
     10 C          17.8727   69.7358   -4.5348 C.3     1  UNL1        0.1895
     11 C          19.2395   71.2891   -3.3957 C.3     1  UNL1        0.1764
     12 C          17.8696   71.0552   -5.2881 C.3     1  UNL1        0.2383
     13 H          16.4421   70.0619   -2.3075 H       1  UNL1        0.2105
     14 H          16.6762   68.2445   -4.0919 H       1  UNL1        0.2106
     15 O          16.0530   70.4010   -7.3496 O.2     1  UNL1       -0.2464
     16 O          19.3706   70.4788  -10.5477 O.2     1  UNL1       -0.2670
     17 N          18.2315   70.8986   -6.6686 N.ar    1  UNL1       -0.2551
     18 N          17.7064   70.4405   -8.9403 N.ar    1  UNL1       -0.2743
     19 C          17.2429   70.5681   -7.6247 C.ar    1  UNL1        0.3323
     20 C          19.5538   71.0726   -7.0625 C.ar    1  UNL1        0.0869
     21 C          19.9796   70.9460   -8.3210 C.ar    1  UNL1        0.0795
     22 C          19.0102   70.6023   -9.3812 C.ar    1  UNL1        0.2626
     23 H          17.0355   70.2103   -9.6235 H       1  UNL1        0.1734
     24 O          23.8462   72.8632   -4.0186 O.3     1  UNL1       -0.2703
     25 P          24.2507   74.4272   -3.9641 P.3     1  UNL1        0.2208
     26 O          23.6928   74.9048   -2.5225 O.co2   1  UNL1       -0.4371
     27 O          23.7428   75.2349   -5.1232 O.2     1  UNL1       -0.5170
     28 O          25.8564   74.4285   -3.8005 O.3     1  UNL1       -0.2858
     29 O          26.7993   76.1111   -2.4235 O.3     1  UNL1       -0.3258
     30 O          30.1903   74.9676   -4.4837 O.3     1  UNL1       -0.3794
     31 O          29.8941   74.2348   -1.7227 O.3     1  UNL1       -0.3794
     32 O          27.6447   75.1037   -5.8551 O.3     1  UNL1       -0.3775
     33 C          28.9267   74.7715   -3.8433 C.3     1  UNL1        0.1715
     34 C          29.0621   75.1884   -2.3775 C.3     1  UNL1        0.1694
     35 C          27.8721   75.6220   -4.5489 C.3     1  UNL1        0.1967
     36 C          27.6905   75.2602   -1.6929 C.3     1  UNL1        0.1761
     37 C          26.5620   75.6662   -3.7605 C.3     1  UNL1        0.2704
     38 H          30.8643   74.4299   -4.0407 H       1  UNL1        0.2105
     39 H          30.7568   74.1989   -2.1649 H       1  UNL1        0.2105
     40 H          28.4814   75.0812   -6.3441 H       1  UNL1        0.2106
     41 O          29.0075   76.5319   -0.1576 O.3     1  UNL1       -0.3794
     42 C          27.7866   75.8253   -0.2774 C.3     1  UNL1        0.1693
     43 H          29.0822   76.8974    0.7382 H       1  UNL1        0.2105
@<TRIPOS>UNITY_ATOM_ATTR
2 1
charge -1
26 1
charge -1
@<TRIPOS>BOND
     1    25    28    1
     2    25    24    1
     3    25    26    1
     4    25    27    2
     5     1     4    1
     6     1    24    1
     7     1     2    1
     8     1     3    2
     9     6    11    1
    10     6    12    1
    11    29    36    1
    12    29    37    1
    13     7     9    1
    14     7    13    1
    15     8    10    1
    16     8    14    1
    17    28    37    1
    18     4     5    1
    19    30    33    1
    20    30    38    1
    21    31    34    1
    22    31    39    1
    23    32    35    1
    24    32    40    1
    25    41    42    1
    26    41    43    1
    27    15    19    2
    28    16    22    2
    29    17    12    1
    30    17    19   ar
    31    17    20   ar
    32    18    19   ar
    33    18    22   ar
    34    18    23    1
    35     9    10    1
    36     9    11    1
    37    10    12    1
    38    11     5    1
    39    33    34    1
    40    33    35    1
    41    34    36    1
    42    35    37    1
    43    36    42    1
    44    20    21   ar
    45    21    22   ar
@<TRIPOS>MOLECULE
*****
 43 45 0 0 0
SMALL
GASTEIGER

@<TRIPOS>ATOM
      1 P          23.0187   72.0773   -3.3353 P.3     1  UNL1        0.2189
      2 O          23.5206   72.8322   -4.6753 O.co2   1  UNL1       -0.4371
      3 O          23.5196   70.6721   -3.1741 O.2     1  UNL1       -0.5170
      4 O          21.4104   72.2500   -3.3714 O.3     1  UNL1       -0.3112
      5 C          20.6096   71.0928   -3.5365 C.3     1  UNL1        0.1811
      6 O          18.7044   72.0237   -4.6667 O.3     1  UNL1       -0.3308
      7 O          17.0477   70.7921   -2.4920 O.3     1  UNL1       -0.3794
      8 O          16.7272   69.0336   -4.5515 O.3     1  UNL1       -0.3779
      9 C          18.2304   70.2953   -3.1163 C.3     1  UNL1        0.1713
     10 C          17.9179   69.7935   -4.5106 C.3     1  UNL1        0.1895
     11 C          19.1435   71.4810   -3.4022 C.3     1  UNL1        0.1764
     12 C          17.8114   71.0899   -5.2955 C.3     1  UNL1        0.2383
     13 H          16.4490   70.0529   -2.2994 H       1  UNL1        0.2105
     14 H          16.8453   68.2193   -4.0380 H       1  UNL1        0.2106
     15 O          16.0525   70.3092   -7.3632 O.2     1  UNL1       -0.2464
     16 O          19.3939   70.5115  -10.5310 O.2     1  UNL1       -0.2670
     17 N          18.1949   70.9311   -6.6700 N.ar    1  UNL1       -0.2551
     18 N          17.7177   70.4107   -8.9389 N.ar    1  UNL1       -0.2743
     19 C          17.2349   70.5343   -7.6298 C.ar    1  UNL1        0.3323
     20 C          19.5102   71.1682   -7.0542 C.ar    1  UNL1        0.0869
     21 C          19.9549   71.0446   -8.3065 C.ar    1  UNL1        0.0795
     22 C          19.0157   70.6340   -9.3701 C.ar    1  UNL1        0.2626
     23 H          17.0668   70.1350   -9.6245 H       1  UNL1        0.1734
     24 O          23.4666   73.0903   -2.1580 O.3     1  UNL1       -0.2703
     25 P          23.0291   74.6148   -1.8458 P.3     1  UNL1        0.2208
     26 O          23.2234   74.7361   -0.2443 O.co2   1  UNL1       -0.4371
     27 O          21.6542   74.9722   -2.3316 O.2     1  UNL1       -0.5170
     28 O          24.2141   75.5158   -2.4696 O.3     1  UNL1       -0.2858
     29 O          25.9498   75.0700   -4.0205 O.3     1  UNL1       -0.3258
     30 O          28.0641   77.3457   -1.2999 O.3     1  UNL1       -0.3794
     31 O          27.3848   78.4617   -3.8575 O.3     1  UNL1       -0.3794
     32 O          26.0735   75.4617   -0.3686 O.3     1  UNL1       -0.3775
     33 C          26.9169   76.9554   -2.0594 C.3     1  UNL1        0.1715
     34 C          27.2612   77.0769   -3.5451 C.3     1  UNL1        0.1694
     35 C          26.5524   75.5142   -1.7081 C.3     1  UNL1        0.1967
     36 C          26.1807   76.4263   -4.4193 C.3     1  UNL1        0.1761
     37 C          25.5054   74.9463   -2.6681 C.3     1  UNL1        0.2704
     38 H          28.3005   78.2601   -1.5180 H       1  UNL1        0.2105
     39 H          28.0698   78.8606   -3.2983 H       1  UNL1        0.2105
     40 H          26.7454   75.8237    0.2293 H       1  UNL1        0.2106
     41 O          25.5405   76.9887   -6.6515 O.3     1  UNL1       -0.3794
     42 C          26.5789   76.3962   -5.8933 C.3     1  UNL1        0.1693
     43 H          25.7803   76.9768   -7.5918 H       1  UNL1        0.2105
@<TRIPOS>UNITY_ATOM_ATTR
2 1
charge -1
26 1
charge -1
@<TRIPOS>BOND
     1    25    28    1
     2    25    24    1
     3    25    26    1
     4    25    27    2
     5     1     4    1
     6     1    24    1
     7     1     2    1
     8     1     3    2
     9     6    11    1
    10     6    12    1
    11    29    36    1
    12    29    37    1
    13     7     9    1
    14     7    13    1
    15     8    10    1
    16     8    14    1
    17    28    37    1
    18     4     5    1
    19    30    33    1
    20    30    38    1
    21    31    34    1
    22    31    39    1
    23    32    35    1
    24    32    40    1
    25    41    42    1
    26    41    43    1
    27    15    19    2
    28    16    22    2
    29    17    12    1
    30    17    19   ar
    31    17    20   ar
    32    18    19   ar
    33    18    22   ar
    34    18    23    1
    35     9    10    1
    36     9    11    1
    37    10    12    1
    38    11     5    1
    39    33    34    1
    40    33    35    1
    41    34    36    1
    42    35    37    1
    43    36    42    1
    44    20    21   ar
    45    21    22   ar
@<TRIPOS>MOLECULE
*****
 43 45 0 0 0
SMALL
GASTEIGER

@<TRIPOS>ATOM
      1 P          20.2994   70.1450   -2.1620 P.3     1  UNL1        0.2189
      2 O          21.3803   69.3838   -3.0946 O.co2   1  UNL1       -0.4371
      3 O          18.9075   69.5876   -2.2210 O.2     1  UNL1       -0.5170
      4 O          20.4518   71.7003   -2.5809 O.3     1  UNL1       -0.3112
      5 C          19.7882   72.1544   -3.7477 C.3     1  UNL1        0.1811
      6 O          19.9247   71.6950   -6.1023 O.3     1  UNL1       -0.3308
      7 O          22.6562   72.9270   -5.9941 O.3     1  UNL1       -0.3794
      8 O          21.1362   74.9413   -7.0278 O.3     1  UNL1       -0.3779
      9 C          21.4753   73.2867   -5.2790 C.3     1  UNL1        0.1713
     10 C          20.4991   73.9923   -6.1969 C.3     1  UNL1        0.1895
     11 C          20.7237   72.0055   -4.9397 C.3     1  UNL1        0.1764
     12 C          19.9085   72.8324   -6.9803 C.3     1  UNL1        0.2383
     13 H          23.1532   73.7290   -6.2215 H       1  UNL1        0.2105
     14 H          21.4953   75.6589   -6.4830 H       1  UNL1        0.2106
     15 O          18.7315   71.7678   -9.3168 O.2     1  UNL1       -0.2464
     16 O          14.7148   73.8625   -8.4684 O.2     1  UNL1       -0.2670
     17 N          18.5566   73.0829   -7.3941 N.ar    1  UNL1       -0.2551
     18 N          16.7324   72.8115   -8.8924 N.ar    1  UNL1       -0.2743
     19 C          18.0631   72.5007   -8.5849 C.ar    1  UNL1        0.3323
     20 C          17.7353   73.8975   -6.6222 C.ar    1  UNL1        0.0869
     21 C          16.4689   74.1851   -6.9300 C.ar    1  UNL1        0.0795
     22 C          15.8763   73.6168   -8.1580 C.ar    1  UNL1        0.2626
     23 H          16.3672   72.4174   -9.7176 H       1  UNL1        0.1734
     24 O          20.9828   70.0943   -0.6980 O.3     1  UNL1       -0.2703
     25 P          22.4936   70.4139   -0.2201 P.3     1  UNL1        0.2208
     26 O          23.2481   70.7891   -1.6013 O.co2   1  UNL1       -0.4371
     27 O          23.1407   69.3045    0.5574 O.2     1  UNL1       -0.5170
     28 O          22.3827   71.8129    0.5769 O.3     1  UNL1       -0.2858
     29 O          21.1984   72.0569    2.6151 O.3     1  UNL1       -0.3258
     30 O          20.9388   75.9391    1.2326 O.3     1  UNL1       -0.3794
     31 O          22.6757   75.3325    3.4379 O.3     1  UNL1       -0.3794
     32 O          20.7187   73.7279   -0.6226 O.3     1  UNL1       -0.3775
     33 C          21.5582   74.6654    1.4311 C.3     1  UNL1        0.1715
     34 C          21.6953   74.4282    2.9363 C.3     1  UNL1        0.1694
     35 C          20.6893   73.5830    0.7932 C.3     1  UNL1        0.1967
     36 C          22.1031   72.9790    3.2339 C.3     1  UNL1        0.1761
     37 C          21.1508   72.1802    1.1923 C.3     1  UNL1        0.2704
     38 H          21.4858   76.6309    1.6348 H       1  UNL1        0.2105
     39 H          22.4064   76.2439    3.2430 H       1  UNL1        0.2105
     40 H          20.4241   74.6199   -0.8624 H       1  UNL1        0.2106
     41 O          21.2268   73.5990    5.3686 O.3     1  UNL1       -0.3794
     42 C          22.0924   72.6778    4.7310 C.3     1  UNL1        0.1693
     43 H          21.2097   73.4191    6.3220 H       1  UNL1        0.2105
@<TRIPOS>UNITY_ATOM_ATTR
2 1
charge -1
26 1
charge -1
@<TRIPOS>BOND
     1    25    28    1
     2    25    24    1
     3    25    26    1
     4    25    27    2
     5     1     4    1
     6     1    24    1
     7     1     2    1
     8     1     3    2
     9     6    11    1
    10     6    12    1
    11    29    36    1
    12    29    37    1
    13     7     9    1
    14     7    13    1
    15     8    10    1
    16     8    14    1
    17    28    37    1
    18     4     5    1
    19    30    33    1
    20    30    38    1
    21    31    34    1
    22    31    39    1
    23    32    35    1
    24    32    40    1
    25    41    42    1
    26    41    43    1
    27    15    19    2
    28    16    22    2
    29    17    12    1
    30    17    19   ar
    31    17    20   ar
    32    18    19   ar
    33    18    22   ar
    34    18    23    1
    35     9    10    1
    36     9    11    1
    37    10    12    1
    38    11     5    1
    39    33    34    1
    40    33    35    1
    41    34    36    1
    42    35    37    1
    43    36    42    1
    44    20    21   ar
    45    21    22   ar
@<TRIPOS>MOLECULE
*****
 43 45 0 0 0
SMALL
GASTEIGER

@<TRIPOS>ATOM
      1 P          21.6178   70.6602   -2.9130 P.3     1  UNL1        0.2189
      2 O          23.1238   70.8386   -3.4766 O.co2   1  UNL1       -0.4371
      3 O          21.0764   69.2625   -2.9827 O.2     1  UNL1       -0.5170
      4 O          20.7690   71.7831   -3.7108 O.3     1  UNL1       -0.3112
      5 C          19.9525   71.3711   -4.7932 C.3     1  UNL1        0.1811
      6 O          17.7050   72.2192   -4.8516 O.3     1  UNL1       -0.3308
      7 O          16.8617   69.5255   -3.8398 O.3     1  UNL1       -0.3794
      8 O          16.2916   69.3658   -6.5018 O.3     1  UNL1       -0.3779
      9 C          17.9060   69.8601   -4.7523 C.3     1  UNL1        0.1713
     10 C          17.3262   70.2399   -6.0988 C.3     1  UNL1        0.1895
     11 C          18.5285   71.1725   -4.2924 C.3     1  UNL1        0.1764
     12 C          16.8306   71.6527   -5.8412 C.3     1  UNL1        0.2383
     13 H          16.4492   68.6905   -4.1128 H       1  UNL1        0.2105
     14 H          16.6571   68.4802   -6.6533 H       1  UNL1        0.2106
     15 O          18.5783   71.2293   -8.0193 O.2     1  UNL1       -0.2464
     16 O          16.8927   74.8540  -10.3131 O.2     1  UNL1       -0.2670
     17 N          16.8696   72.4704   -7.0208 N.ar    1  UNL1       -0.2551
     18 N          17.7375   73.0344   -9.1597 N.ar    1  UNL1       -0.2743
     19 C          17.7857   72.1727   -8.0565 C.ar    1  UNL1        0.3323
     20 C          16.0058   73.5534   -7.1421 C.ar    1  UNL1        0.0869
     21 C          15.9733   74.3663   -8.2002 C.ar    1  UNL1        0.0795
     22 C          16.8982   74.1246   -9.3263 C.ar    1  UNL1        0.2626
     23 H          18.3669   72.8466   -9.8935 H       1  UNL1        0.1734
     24 O          21.7141   71.2707   -1.4193 O.3     1  UNL1       -0.2703
     25 P          22.2618   70.6255   -0.0421 P.3     1  UNL1        0.2208
     26 O          23.7679   70.1704   -0.4188 O.co2   1  UNL1       -0.4371
     27 O          21.4012   69.5245    0.5066 O.2     1  UNL1       -0.5170
     28 O          22.4524   71.8835    0.9509 O.3     1  UNL1       -0.2858
     29 O          21.4585   72.4733    3.0199 O.3     1  UNL1       -0.3258
     30 O          21.5106   76.1935    1.2288 O.3     1  UNL1       -0.3794
     31 O          23.3347   75.6266    3.3733 O.3     1  UNL1       -0.3794
     32 O          20.9160   73.8399   -0.3481 O.3     1  UNL1       -0.3775
     33 C          22.0038   74.8851    1.5295 C.3     1  UNL1        0.1715
     34 C          22.2284   74.7928    3.0401 C.3     1  UNL1        0.1694
     35 C          20.9786   73.8483    1.0740 C.3     1  UNL1        0.1967
     36 C          22.5006   73.3457    3.4723 C.3     1  UNL1        0.1761
     37 C          21.3168   72.4515    1.5982 C.3     1  UNL1        0.2704
     38 H          22.1571   76.8565    1.5151 H       1  UNL1        0.2105
     39 H          23.1502   76.5374    3.0947 H       1  UNL1        0.2105
     40 H          20.7010   74.7296   -0.6675 H       1  UNL1        0.2106
     41 O          21.2702   72.9332    5.4785 O.3     1  UNL1       -0.3794
     42 C          22.5712   73.2061    4.9914 C.3     1  UNL1        0.1693
     43 H          21.2998   72.8415    6.4441 H       1  UNL1        0.2105
@<TRIPOS>UNITY_ATOM_ATTR
2 1
charge -1
26 1
charge -1
@<TRIPOS>BOND
     1    25    28    1
     2    25    24    1
     3    25    26    1
     4    25    27    2
     5     1     4    1
     6     1    24    1
     7     1     2    1
     8     1     3    2
     9     6    11    1
    10     6    12    1
    11    29    36    1
    12    29    37    1
    13     7     9    1
    14     7    13    1
    15     8    10    1
    16     8    14    1
    17    28    37    1
    18     4     5    1
    19    30    33    1
    20    30    38    1
    21    31    34    1
    22    31    39    1
    23    32    35    1
    24    32    40    1
    25    41    42    1
    26    41    43    1
    27    15    19    2
    28    16    22    2
    29    17    12    1
    30    17    19   ar
    31    17    20   ar
    32    18    19   ar
    33    18    22   ar
    34    18    23    1
    35     9    10    1
    36     9    11    1
    37    10    12    1
    38    11     5    1
    39    33    34    1
    40    33    35    1
    41    34    36    1
    42    35    37    1
    43    36    42    1
    44    20    21   ar
    45    21    22   ar
@<TRIPOS>MOLECULE
*****
 43 45 0 0 0
SMALL
GASTEIGER

@<TRIPOS>ATOM
      1 P          23.1231   72.8167   -3.5462 P.3     1  UNL1        0.2189
      2 O          23.3593   71.2202   -3.4331 O.co2   1  UNL1       -0.4371
      3 O          24.2972   73.5962   -4.0613 O.2     1  UNL1       -0.5170
      4 O          22.5918   73.2358   -2.0765 O.3     1  UNL1       -0.3112
      5 C          22.3791   72.2143   -1.1178 C.3     1  UNL1        0.1811
      6 O          21.1521   72.2727    0.9474 O.3     1  UNL1       -0.3308
      7 O          19.0097   73.7076   -0.5829 O.3     1  UNL1       -0.3794
      8 O          20.2624   75.7405    0.7340 O.3     1  UNL1       -0.3779
      9 C          20.4273   73.7963   -0.7166 C.3     1  UNL1        0.1713
     10 C          21.0159   74.5828    0.4361 C.3     1  UNL1        0.1895
     11 C          21.0085   72.4073   -0.4835 C.3     1  UNL1        0.1764
     12 C          20.9884   73.5618    1.5608 C.3     1  UNL1        0.2383
     13 H          18.6160   74.5827   -0.7279 H       1  UNL1        0.2105
     14 H          20.3112   76.3590   -0.0115 H       1  UNL1        0.2106
     15 O          23.5264   74.6227    0.9200 O.2     1  UNL1       -0.2464
     16 O          24.9694   74.2923    5.2846 O.2     1  UNL1       -0.2670
     17 N          22.0462   73.7642    2.5102 N.ar    1  UNL1       -0.2551
     18 N          24.2428   74.4575    3.0938 N.ar    1  UNL1       -0.2743
     19 C          23.2832   74.3024    2.0853 C.ar    1  UNL1        0.3323
     20 C          21.8515   73.4306    3.8461 C.ar    1  UNL1        0.0869
     21 C          22.7772   73.5835    4.7953 C.ar    1  UNL1        0.0795
     22 C          24.0974   74.1396    4.4348 C.ar    1  UNL1        0.2626
     23 H          25.1125   74.8304    2.8210 H       1  UNL1        0.1734
     24 O          21.7925   72.9236   -4.4577 O.3     1  UNL1       -0.2703
     25 P          21.5775   73.4758   -5.9616 P.3     1  UNL1        0.2208
     26 O          22.7765   72.7731   -6.7898 O.co2   1  UNL1       -0.4371
     27 O          21.5454   74.9730   -6.0687 O.2     1  UNL1       -0.5170
     28 O          20.2380   72.7394   -6.4796 O.3     1  UNL1       -0.2858
     29 O          19.3142   70.5884   -6.1104 O.3     1  UNL1       -0.3258
     30 O          18.5712   70.9397  -10.1570 O.3     1  UNL1       -0.3794
     31 O          16.3940   71.1300   -8.2938 O.3     1  UNL1       -0.3794
     32 O          21.0459   71.9544   -9.0498 O.3     1  UNL1       -0.3775
     33 C          18.7123   71.4072   -8.8128 C.3     1  UNL1        0.1715
     34 C          17.6952   70.6700   -7.9394 C.3     1  UNL1        0.1694
     35 C          20.1355   71.1270   -8.3337 C.3     1  UNL1        0.1967
     36 C          17.9620   70.9182   -6.4487 C.3     1  UNL1        0.1761
     37 C          20.2805   71.3582   -6.8284 C.3     1  UNL1        0.2704
     38 H          17.6699   71.1151  -10.4674 H       1  UNL1        0.2105
     39 H          16.2383   70.9679   -9.2376 H       1  UNL1        0.2105
     40 H          20.9445   71.7986  -10.0013 H       1  UNL1        0.2106
     41 O          16.2862   69.2164   -6.3818 O.3     1  UNL1       -0.3794
     42 C          17.0592   70.0687   -5.5569 C.3     1  UNL1        0.1693
     43 H          15.7069   68.6695   -5.8277 H       1  UNL1        0.2105
@<TRIPOS>UNITY_ATOM_ATTR
2 1
charge -1
26 1
charge -1
@<TRIPOS>BOND
     1    25    28    1
     2    25    24    1
     3    25    26    1
     4    25    27    2
     5     1     4    1
     6     1    24    1
     7     1     2    1
     8     1     3    2
     9     6    11    1
    10     6    12    1
    11    29    36    1
    12    29    37    1
    13     7     9    1
    14     7    13    1
    15     8    10    1
    16     8    14    1
    17    28    37    1
    18     4     5    1
    19    30    33    1
    20    30    38    1
    21    31    34    1
    22    31    39    1
    23    32    35    1
    24    32    40    1
    25    41    42    1
    26    41    43    1
    27    15    19    2
    28    16    22    2
    29    17    12    1
    30    17    19   ar
    31    17    20   ar
    32    18    19   ar
    33    18    22   ar
    34    18    23    1
    35     9    10    1
    36     9    11    1
    37    10    12    1
    38    11     5    1
    39    33    34    1
    40    33    35    1
    41    34    36    1
    42    35    37    1
    43    36    42    1
    44    20    21   ar
    45    21    22   ar
@<TRIPOS>MOLECULE
*****
 43 45 0 0 0
SMALL
GASTEIGER

@<TRIPOS>ATOM
      1 P          21.4275   74.0957   -5.8524 P.3     1  UNL1        0.2189
      2 O          20.4348   75.3585   -5.6599 O.co2   1  UNL1       -0.4371
      3 O          22.8306   74.4475   -6.2511 O.2     1  UNL1       -0.5170
      4 O          20.6294   73.1262   -6.8727 O.3     1  UNL1       -0.3112
      5 C          21.3245   72.6020   -7.9907 C.3     1  UNL1        0.1811
      6 O          19.8844   70.7013   -8.2853 O.3     1  UNL1       -0.3308
      7 O          18.4961   72.3160  -10.3963 O.3     1  UNL1       -0.3794
      8 O          16.8223   72.5683   -8.2583 O.3     1  UNL1       -0.3779
      9 C          19.0716   72.7466   -9.1639 C.3     1  UNL1        0.1713
     10 C          18.1922   72.3361   -8.0012 C.3     1  UNL1        0.1895
     11 C          20.3284   71.9209   -8.9191 C.3     1  UNL1        0.1764
     12 C          18.5193   70.8587   -7.8650 C.3     1  UNL1        0.2383
     13 H          17.6920   72.8294  -10.5743 H       1  UNL1        0.2105
     14 H          16.6650   73.5222   -8.3366 H       1  UNL1        0.2106
     15 O          16.1009   69.9714   -6.7065 O.2     1  UNL1       -0.2464
     16 O          18.1445   69.0906   -2.6705 O.2     1  UNL1       -0.2670
     17 N          18.3907   70.3917   -6.5134 N.ar    1  UNL1       -0.2551
     18 N          17.1205   69.5334   -4.6979 N.ar    1  UNL1       -0.2743
     19 C          17.1308   69.9693   -6.0290 C.ar    1  UNL1        0.3323
     20 C          19.5061   70.3556   -5.6836 C.ar    1  UNL1        0.0869
     21 C          19.4792   69.9383   -4.4162 C.ar    1  UNL1        0.0795
     22 C          18.2019   69.4800   -3.8328 C.ar    1  UNL1        0.2626
     23 H          16.2536   69.2347   -4.3386 H       1  UNL1        0.1734
     24 O          21.3042   73.3179   -4.4408 O.3     1  UNL1       -0.2703
     25 P          20.3728   73.6014   -3.1504 P.3     1  UNL1        0.2208
     26 O          18.8833   73.2696   -3.6877 O.co2   1  UNL1       -0.4371
     27 O          20.5292   74.9767   -2.5688 O.2     1  UNL1       -0.5170
     28 O          20.7144   72.4001   -2.1281 O.3     1  UNL1       -0.2858
     29 O          22.5573   73.1220   -0.8246 O.3     1  UNL1       -0.3258
     30 O          22.0962   69.3248    0.7307 O.3     1  UNL1       -0.3794
     31 O          21.3336   71.6035    2.3036 O.3     1  UNL1       -0.3794
     32 O          21.7193   69.7801   -2.1030 O.3     1  UNL1       -0.3775
     33 C          21.6575   70.5664    0.1728 C.3     1  UNL1        0.1715
     34 C          22.1005   71.6948    1.1062 C.3     1  UNL1        0.1694
     35 C          22.2791   70.7387   -1.2119 C.3     1  UNL1        0.1967
     36 C          21.9032   73.0673    0.4486 C.3     1  UNL1        0.1761
     37 C          22.0674   72.1535   -1.7539 C.3     1  UNL1        0.2704
     38 H          21.7047   69.2090    1.6098 H       1  UNL1        0.2105
     39 H          21.4667   70.7320    2.7086 H       1  UNL1        0.2105
     40 H          21.8601   68.8887   -1.7488 H       1  UNL1        0.2106
     41 O          21.7571   75.3812    1.0258 O.3     1  UNL1       -0.3794
     42 C          22.4834   74.1967    1.2971 C.3     1  UNL1        0.1693
     43 H          22.1151   76.1086    1.5591 H       1  UNL1        0.2105
@<TRIPOS>UNITY_ATOM_ATTR
2 1
charge -1
26 1
charge -1
@<TRIPOS>BOND
     1    25    28    1
     2    25    24    1
     3    25    26    1
     4    25    27    2
     5     1     4    1
     6     1    24    1
     7     1     2    1
     8     1     3    2
     9     6    11    1
    10     6    12    1
    11    29    36    1
    12    29    37    1
    13     7     9    1
    14     7    13    1
    15     8    10    1
    16     8    14    1
    17    28    37    1
    18     4     5    1
    19    30    33    1
    20    30    38    1
    21    31    34    1
    22    31    39    1
    23    32    35    1
    24    32    40    1
    25    41    42    1
    26    41    43    1
    27    15    19    2
    28    16    22    2
    29    17    12    1
    30    17    19   ar
    31    17    20   ar
    32    18    19   ar
    33    18    22   ar
    34    18    23    1
    35     9    10    1
    36     9    11    1
    37    10    12    1
    38    11     5    1
    39    33    34    1
    40    33    35    1
    41    34    36    1
    42    35    37    1
    43    36    42    1
    44    20    21   ar
    45    21    22   ar
@<TRIPOS>MOLECULE
*****
 43 45 0 0 0
SMALL
GASTEIGER

@<TRIPOS>ATOM
      1 P          23.0694   71.8649   -2.9318 P.3     1  UNL1        0.2189
      2 O          23.8606   73.0104   -3.7560 O.co2   1  UNL1       -0.4371
      3 O          23.5738   70.4679   -3.1453 O.2     1  UNL1       -0.5170
      4 O          21.5165   72.1167   -3.3101 O.3     1  UNL1       -0.3112
      5 C          20.6338   71.0083   -3.3161 C.3     1  UNL1        0.1811
      6 O          18.8547   72.1692   -4.4391 O.3     1  UNL1       -0.3308
      7 O          17.0254   70.9557   -2.3966 O.3     1  UNL1       -0.3794
      8 O          16.6274   69.3614   -4.5729 O.3     1  UNL1       -0.3779
      9 C          18.1823   70.3969   -3.0169 C.3     1  UNL1        0.1713
     10 C          17.8763   70.0107   -4.4490 C.3     1  UNL1        0.1895
     11 C          19.2023   71.5138   -3.1997 C.3     1  UNL1        0.1764
     12 C          17.9076   71.3571   -5.1520 C.3     1  UNL1        0.2383
     13 H          16.3597   70.2610   -2.2692 H       1  UNL1        0.2105
     14 H          16.6580   68.5100   -4.1094 H       1  UNL1        0.2106
     15 O          20.1832   72.6337   -6.2336 O.2     1  UNL1       -0.2464
     16 O          19.4047   70.8759  -10.4223 O.2     1  UNL1       -0.2670
     17 N          18.3233   71.2500   -6.5221 N.ar    1  UNL1       -0.2551
     18 N          19.7938   71.7573   -8.3184 N.ar    1  UNL1       -0.2743
     19 C          19.4808   71.9320   -6.9643 C.ar    1  UNL1        0.3323
     20 C          17.5864   70.4753   -7.4113 C.ar    1  UNL1        0.0869
     21 C          17.8976   70.3200   -8.6998 C.ar    1  UNL1        0.0795
     22 C          19.0922   70.9988   -9.2421 C.ar    1  UNL1        0.2626
     23 H          20.5959   72.2232   -8.6490 H       1  UNL1        0.1734
     24 O          23.1607   72.3871   -1.4048 O.3     1  UNL1       -0.2703
     25 P          22.9139   73.8519   -0.7673 P.3     1  UNL1        0.2208
     26 O          21.4895   74.2942   -1.3941 O.co2   1  UNL1       -0.4371
     27 O          24.0288   74.8265   -1.0148 O.2     1  UNL1       -0.5170
     28 O          22.6040   73.5720    0.7917 O.3     1  UNL1       -0.2858
     29 O          21.1226   74.5651    2.3524 O.3     1  UNL1       -0.3258
     30 O          24.4314   74.1107    4.7805 O.3     1  UNL1       -0.3794
     31 O          22.1483   72.4108    5.1623 O.3     1  UNL1       -0.3794
     32 O          24.7681   74.8788    2.0099 O.3     1  UNL1       -0.3775
     33 C          23.5225   73.7520    3.7362 C.3     1  UNL1        0.1715
     34 C          22.1312   73.5808    4.3492 C.3     1  UNL1        0.1694
     35 C          23.5130   74.8568    2.6814 C.3     1  UNL1        0.1967
     36 C          21.0571   73.4588    3.2599 C.3     1  UNL1        0.1761
     37 C          22.3766   74.6671    1.6750 C.3     1  UNL1        0.2704
     38 H          24.4425   73.4131    5.4534 H       1  UNL1        0.2105
     39 H          22.8311   72.5004    5.8457 H       1  UNL1        0.2105
     40 H          25.4791   74.9997    2.6578 H       1  UNL1        0.2106
     41 O          19.7412   73.6232    5.2475 O.3     1  UNL1       -0.3794
     42 C          19.6470   73.4456    3.8461 C.3     1  UNL1        0.1693
     43 H          18.8511   73.6171    5.6341 H       1  UNL1        0.2105
@<TRIPOS>UNITY_ATOM_ATTR
2 1
charge -1
26 1
charge -1
@<TRIPOS>BOND
     1    25    28    1
     2    25    24    1
     3    25    26    1
     4    25    27    2
     5     1     4    1
     6     1    24    1
     7     1     2    1
     8     1     3    2
     9     6    11    1
    10     6    12    1
    11    29    36    1
    12    29    37    1
    13     7     9    1
    14     7    13    1
    15     8    10    1
    16     8    14    1
    17    28    37    1
    18     4     5    1
    19    30    33    1
    20    30    38    1
    21    31    34    1
    22    31    39    1
    23    32    35    1
    24    32    40    1
    25    41    42    1
    26    41    43    1
    27    15    19    2
    28    16    22    2
    29    17    12    1
    30    17    19   ar
    31    17    20   ar
    32    18    19   ar
    33    18    22   ar
    34    18    23    1
    35     9    10    1
    36     9    11    1
    37    10    12    1
    38    11     5    1
    39    33    34    1
    40    33    35    1
    41    34    36    1
    42    35    37    1
    43    36    42    1
    44    20    21   ar
    45    21    22   ar
@<TRIPOS>MOLECULE
*****
 43 45 0 0 0
SMALL
GASTEIGER

@<TRIPOS>ATOM
      1 P          22.4098   72.8505   -4.8167 P.3     1  UNL1        0.2189
      2 O          21.5165   74.1919   -4.6750 O.co2   1  UNL1       -0.4371
      3 O          23.8137   72.9665   -4.2999 O.2     1  UNL1       -0.5170
      4 O          22.2666   72.4516   -6.3782 O.3     1  UNL1       -0.3112
      5 C          21.3222   73.1502   -7.1706 C.3     1  UNL1        0.1811
      6 O          19.8502   71.2558   -7.3051 O.3     1  UNL1       -0.3308
      7 O          19.4964   71.9723  -10.1951 O.3     1  UNL1       -0.3794
      8 O          17.2281   72.9670   -9.0541 O.3     1  UNL1       -0.3779
      9 C          19.6555   72.8297   -9.0660 C.3     1  UNL1        0.1713
     10 C          18.3825   72.8611   -8.2461 C.3     1  UNL1        0.1895
     11 C          20.6353   72.1654   -8.1067 C.3     1  UNL1        0.1764
     12 C          18.4551   71.5393   -7.5007 C.3     1  UNL1        0.2383
     13 H          18.8751   72.3757  -10.8222 H       1  UNL1        0.2105
     14 H          17.2279   73.8246   -9.5072 H       1  UNL1        0.2106
     15 O          15.7699   72.3210   -7.1052 O.2     1  UNL1       -0.2464
     16 O          16.0748   71.7205   -2.5458 O.2     1  UNL1       -0.2670
     17 N          17.8069   71.5960   -6.2209 N.ar    1  UNL1       -0.2551
     18 N          15.9238   72.0212   -4.8353 N.ar    1  UNL1       -0.2743
     19 C          16.4552   72.0027   -6.1312 C.ar    1  UNL1        0.3323
     20 C          18.5101   71.2502   -5.0720 C.ar    1  UNL1        0.0869
     21 C          17.9892   71.2744   -3.8434 C.ar    1  UNL1        0.0795
     22 C          16.5826   71.6879   -3.6625 C.ar    1  UNL1        0.2626
     23 H          14.9839   72.3017   -4.7484 H       1  UNL1        0.1734
     24 O          21.5090   71.7336   -4.0723 O.3     1  UNL1       -0.2703
     25 P          21.8647   70.7095   -2.8733 P.3     1  UNL1        0.2208
     26 O          23.4659   70.5213   -3.0087 O.co2   1  UNL1       -0.4371
     27 O          21.0853   69.4268   -2.9080 O.2     1  UNL1       -0.5170
     28 O          21.6686   71.5750   -1.5251 O.3     1  UNL1       -0.2858
     29 O          23.2648   72.9595   -0.4519 O.3     1  UNL1       -0.3258
     30 O          21.1853   71.6540    2.8681 O.3     1  UNL1       -0.3794
     31 O          20.8704   74.3647    1.9732 O.3     1  UNL1       -0.3794
     32 O          21.6948   69.8339    0.6755 O.3     1  UNL1       -0.3775
     33 C          21.3417   72.0665    1.5076 C.3     1  UNL1        0.1715
     34 C          21.8935   73.4934    1.4995 C.3     1  UNL1        0.1694
     35 C          22.3061   71.1130    0.8046 C.3     1  UNL1        0.1967
     36 C          22.3379   73.9075    0.0902 C.3     1  UNL1        0.1761
     37 C          22.7231   71.6424   -0.5687 C.3     1  UNL1        0.2704
     38 H          20.5737   72.2551    3.3200 H       1  UNL1        0.2105
     39 H          20.5985   74.0921    2.8636 H       1  UNL1        0.2105
     40 H          21.4357   69.5096    1.5516 H       1  UNL1        0.2106
     41 O          24.2111   75.1694    0.8697 O.3     1  UNL1       -0.3794
     42 C          23.0357   75.2659    0.0865 C.3     1  UNL1        0.1693
     43 H          24.6659   76.0266    0.8762 H       1  UNL1        0.2105
@<TRIPOS>UNITY_ATOM_ATTR
2 1
charge -1
26 1
charge -1
@<TRIPOS>BOND
     1    25    28    1
     2    25    24    1
     3    25    26    1
     4    25    27    2
     5     1     4    1
     6     1    24    1
     7     1     2    1
     8     1     3    2
     9     6    11    1
    10     6    12    1
    11    29    36    1
    12    29    37    1
    13     7     9    1
    14     7    13    1
    15     8    10    1
    16     8    14    1
    17    28    37    1
    18     4     5    1
    19    30    33    1
    20    30    38    1
    21    31    34    1
    22    31    39    1
    23    32    35    1
    24    32    40    1
    25    41    42    1
    26    41    43    1
    27    15    19    2
    28    16    22    2
    29    17    12    1
    30    17    19   ar
    31    17    20   ar
    32    18    19   ar
    33    18    22   ar
    34    18    23    1
    35     9    10    1
    36     9    11    1
    37    10    12    1
    38    11     5    1
    39    33    34    1
    40    33    35    1
    41    34    36    1
    42    35    37    1
    43    36    42    1
    44    20    21   ar
    45    21    22   ar
@<TRIPOS>MOLECULE
*****
 43 45 0 0 0
SMALL
GASTEIGER

@<TRIPOS>ATOM
      1 P          20.8014   70.1244   -2.2338 P.3     1  UNL1        0.2189
      2 O          22.3017   69.9875   -2.8236 O.co2   1  UNL1       -0.4371
      3 O          19.8115   69.1406   -2.7848 O.2     1  UNL1       -0.5170
      4 O          20.4381   71.6855   -2.4549 O.3     1  UNL1       -0.3112
      5 C          19.7568   72.0598   -3.6396 C.3     1  UNL1        0.1811
      6 O          19.9191   71.6083   -5.9941 O.3     1  UNL1       -0.3308
      7 O          22.6442   72.8512   -5.8543 O.3     1  UNL1       -0.3794
      8 O          21.1264   74.8624   -6.8973 O.3     1  UNL1       -0.3779
      9 C          21.4546   73.2038   -5.1502 C.3     1  UNL1        0.1713
     10 C          20.4849   73.9082   -6.0759 C.3     1  UNL1        0.1895
     11 C          20.7049   71.9185   -4.8225 C.3     1  UNL1        0.1764
     12 C          19.9071   72.7483   -6.8688 C.3     1  UNL1        0.2383
     13 H          23.1402   73.6560   -6.0742 H       1  UNL1        0.2105
     14 H          21.4769   75.5798   -6.3467 H       1  UNL1        0.2106
     15 O          18.6832   71.5023   -9.0887 O.2     1  UNL1       -0.2464
     16 O          14.7285   73.7708   -8.4136 O.2     1  UNL1       -0.2670
     17 N          18.5585   72.9944   -7.2956 N.ar    1  UNL1       -0.2551
     18 N          16.7150   72.6327   -8.7506 N.ar    1  UNL1       -0.2743
     19 C          18.0401   72.3172   -8.4239 C.ar    1  UNL1        0.3323
     20 C          17.7649   73.8983   -6.5977 C.ar    1  UNL1        0.0869
     21 C          16.5035   74.1890   -6.9230 C.ar    1  UNL1        0.0795
     22 C          15.8861   73.5248   -8.0890 C.ar    1  UNL1        0.2626
     23 H          16.3327   72.1733   -9.5333 H       1  UNL1        0.1734
     24 O          21.0286   70.0271   -0.6363 O.3     1  UNL1       -0.2703
     25 P          22.1723   70.6611    0.3138 P.3     1  UNL1        0.2208
     26 O          22.9279   71.7070   -0.6623 O.co2   1  UNL1       -0.4371
     27 O          23.0757   69.6454    0.9512 O.2     1  UNL1       -0.5170
     28 O          21.3663   71.5892    1.3598 O.3     1  UNL1       -0.2858
     29 O          21.6749   73.9375    1.2773 O.3     1  UNL1       -0.3258
     30 O          20.1715   73.6038    5.1086 O.3     1  UNL1       -0.3794
     31 O          18.5303   74.7217    3.0338 O.3     1  UNL1       -0.3794
     32 O          21.9971   71.5994    4.0942 O.3     1  UNL1       -0.3775
     33 C          20.2981   73.2662    3.7247 C.3     1  UNL1        0.1715
     34 C          19.9307   74.4980    2.8950 C.3     1  UNL1        0.1694
     35 C          21.7378   72.8393    3.4447 C.3     1  UNL1        0.1967
     36 C          20.2964   74.3002    1.4178 C.3     1  UNL1        0.1761
     37 C          22.0096   72.7188    1.9441 C.3     1  UNL1        0.2704
     38 H          19.2595   73.8753    5.2932 H       1  UNL1        0.2105
     39 H          18.3127   74.8446    3.9712 H       1  UNL1        0.2105
     40 H          21.8216   71.6888    5.0435 H       1  UNL1        0.2106
     41 O          18.7306   75.6229    0.1898 O.3     1  UNL1       -0.3794
     42 C          20.0845   75.5729    0.6007 C.3     1  UNL1        0.1693
     43 H          18.5810   76.4279   -0.3310 H       1  UNL1        0.2105
@<TRIPOS>UNITY_ATOM_ATTR
2 1
charge -1
26 1
charge -1
@<TRIPOS>BOND
     1    25    28    1
     2    25    24    1
     3    25    26    1
     4    25    27    2
     5     1     4    1
     6     1    24    1
     7     1     2    1
     8     1     3    2
     9     6    11    1
    10     6    12    1
    11    29    36    1
    12    29    37    1
    13     7     9    1
    14     7    13    1
    15     8    10    1
    16     8    14    1
    17    28    37    1
    18     4     5    1
    19    30    33    1
    20    30    38    1
    21    31    34    1
    22    31    39    1
    23    32    35    1
    24    32    40    1
    25    41    42    1
    26    41    43    1
    27    15    19    2
    28    16    22    2
    29    17    12    1
    30    17    19   ar
    31    17    20   ar
    32    18    19   ar
    33    18    22   ar
    34    18    23    1
    35     9    10    1
    36     9    11    1
    37    10    12    1
    38    11     5    1
    39    33    34    1
    40    33    35    1
    41    34    36    1
    42    35    37    1
    43    36    42    1
    44    20    21   ar
    45    21    22   ar
@<TRIPOS>MOLECULE
*****
 43 45 0 0 0
SMALL
GASTEIGER

@<TRIPOS>ATOM
      1 P          22.3065   71.9106   -2.9500 P.3     1  UNL1        0.2189
      2 O          21.4119   73.2003   -2.5579 O.co2   1  UNL1       -0.4371
      3 O          23.5405   72.2141   -3.7478 O.2     1  UNL1       -0.5170
      4 O          21.2500   70.9023   -3.6465 O.3     1  UNL1       -0.3112
      5 C          20.3009   71.4375   -4.5524 C.3     1  UNL1        0.1811
      6 O          18.0787   72.3241   -4.3295 O.3     1  UNL1       -0.3308
      7 O          17.2139   69.5090   -3.7652 O.3     1  UNL1       -0.3794
      8 O          16.4980   69.8388   -6.3758 O.3     1  UNL1       -0.3779
      9 C          18.2171   69.9819   -4.6625 C.3     1  UNL1        0.1713
     10 C          17.5772   70.6073   -5.8844 C.3     1  UNL1        0.1895
     11 C          18.9006   71.1790   -4.0135 C.3     1  UNL1        0.1764
     12 C          17.1367   71.9602   -5.3518 C.3     1  UNL1        0.2383
     13 H          16.7637   68.7441   -4.1578 H       1  UNL1        0.2105
     14 H          16.8293   68.9879   -6.7030 H       1  UNL1        0.2106
     15 O          15.4320   74.2123   -5.3566 O.2     1  UNL1       -0.2464
     16 O          17.2212   75.7870   -9.3012 O.2     1  UNL1       -0.2670
     17 N          17.1360   72.9749   -6.3676 N.ar    1  UNL1       -0.2551
     18 N          16.3244   74.9946   -7.3206 N.ar    1  UNL1       -0.2743
     19 C          16.2390   74.0646   -6.2767 C.ar    1  UNL1        0.3323
     20 C          18.0181   72.8836   -7.4389 C.ar    1  UNL1        0.0869
     21 C          18.0861   73.7782   -8.4269 C.ar    1  UNL1        0.0795
     22 C          17.1831   74.9471   -8.4074 C.ar    1  UNL1        0.2626
     23 H          15.7088   75.7621   -7.2786 H       1  UNL1        0.1734
     24 O          22.5853   71.2129   -1.5188 O.3     1  UNL1       -0.2703
     25 P          21.6176   70.3534   -0.5504 P.3     1  UNL1        0.2208
     26 O          22.6380   69.3362    0.1857 O.co2   1  UNL1       -0.4371
     27 O          20.4773   69.6815   -1.2590 O.2     1  UNL1       -0.5170
     28 O          21.1708   71.3889    0.6041 O.3     1  UNL1       -0.2858
     29 O          21.5753   73.6961    0.9643 O.3     1  UNL1       -0.3258
     30 O          22.0342   72.3335    4.8352 O.3     1  UNL1       -0.3794
     31 O          19.6961   73.8458    4.1322 O.3     1  UNL1       -0.3794
     32 O          23.0142   70.7478    2.6205 O.3     1  UNL1       -0.3775
     33 C          21.4688   72.3605    3.5218 C.3     1  UNL1        0.1715
     34 C          20.8453   73.7394    3.2964 C.3     1  UNL1        0.1694
     35 C          22.5712   72.0952    2.4982 C.3     1  UNL1        0.1967
     36 C          20.4563   73.9377    1.8252 C.3     1  UNL1        0.1761
     37 C          22.0943   72.3690    1.0708 C.3     1  UNL1        0.2704
     38 H          21.3394   72.5009    5.4900 H       1  UNL1        0.2105
     39 H          19.9554   73.7182    5.0583 H       1  UNL1        0.2105
     40 H          23.3137   70.5872    3.5284 H       1  UNL1        0.2106
     41 O          21.1073   76.1666    1.2621 O.3     1  UNL1       -0.3794
     42 C          19.9784   75.3611    1.5469 C.3     1  UNL1        0.1693
     43 H          20.8184   77.0754    1.0826 H       1  UNL1        0.2105
@<TRIPOS>UNITY_ATOM_ATTR
2 1
charge -1
26 1
charge -1
@<TRIPOS>BOND
     1    25    28    1
     2    25    24    1
     3    25    26    1
     4    25    27    2
     5     1     4    1
     6     1    24    1
     7     1     2    1
     8     1     3    2
     9     6    11    1
    10     6    12    1
    11    29    36    1
    12    29    37    1
    13     7     9    1
    14     7    13    1
    15     8    10    1
    16     8    14    1
    17    28    37    1
    18     4     5    1
    19    30    33    1
    20    30    38    1
    21    31    34    1
    22    31    39    1
    23    32    35    1
    24    32    40    1
    25    41    42    1
    26    41    43    1
    27    15    19    2
    28    16    22    2
    29    17    12    1
    30    17    19   ar
    31    17    20   ar
    32    18    19   ar
    33    18    22   ar
    34    18    23    1
    35     9    10    1
    36     9    11    1
    37    10    12    1
    38    11     5    1
    39    33    34    1
    40    33    35    1
    41    34    36    1
    42    35    37    1
    43    36    42    1
    44    20    21   ar
    45    21    22   ar
@<TRIPOS>MOLECULE
*****
 43 45 0 0 0
SMALL
GASTEIGER

@<TRIPOS>ATOM
      1 P          22.5025   73.3573   -4.2873 P.3     1  UNL1        0.2189
      2 O          21.6873   71.9614   -4.3548 O.co2   1  UNL1       -0.4371
      3 O          23.9949   73.2242   -4.3676 O.2     1  UNL1       -0.5170
      4 O          21.9318   74.0762   -2.9549 O.3     1  UNL1       -0.3112
      5 C          21.4339   73.2619   -1.9076 C.3     1  UNL1        0.1811
      6 O          22.8003   73.0660    0.0592 O.3     1  UNL1       -0.3308
      7 O          23.5812   70.3640   -0.9801 O.3     1  UNL1       -0.3794
      8 O          21.7175   69.7559    0.9156 O.3     1  UNL1       -0.3779
      9 C          22.3240   71.0334   -1.0621 C.3     1  UNL1        0.1713
     10 C          21.6307   71.0171    0.2843 C.3     1  UNL1        0.1895
     11 C          22.5957   72.5192   -1.2620 C.3     1  UNL1        0.1764
     12 C          22.3816   72.1013    1.0384 C.3     1  UNL1        0.2383
     13 H          23.4333   69.4133   -0.8527 H       1  UNL1        0.2105
     14 H          21.2244   69.1004    0.3980 H       1  UNL1        0.2106
     15 O          22.2412   71.3576    3.7597 O.2     1  UNL1       -0.2464
     16 O          19.1959   74.6862    4.7017 O.2     1  UNL1       -0.2670
     17 N          21.5605   72.7566    2.0171 N.ar    1  UNL1       -0.2551
     18 N          20.7251   73.0157    4.2265 N.ar    1  UNL1       -0.2743
     19 C          21.5619   72.3043    3.3572 C.ar    1  UNL1        0.3323
     20 C          20.7657   73.8353    1.6447 C.ar    1  UNL1        0.0869
     21 C          19.9723   74.5021    2.4856 C.ar    1  UNL1        0.0795
     22 C          19.9155   74.0932    3.9039 C.ar    1  UNL1        0.2626
     23 H          20.7095   72.7181    5.1651 H       1  UNL1        0.1734
     24 O          21.8391   74.2235   -5.4800 O.3     1  UNL1       -0.2703
     25 P          21.7606   73.9527   -7.0717 P.3     1  UNL1        0.2208
     26 O          22.7149   72.6624   -7.2761 O.co2   1  UNL1       -0.4371
     27 O          22.1314   75.1372   -7.9164 O.2     1  UNL1       -0.5170
     28 O          20.2655   73.3971   -7.3183 O.3     1  UNL1       -0.2858
     29 O          18.7422   72.2068   -5.9473 O.3     1  UNL1       -0.3258
     30 O          18.1046   70.2275   -9.5147 O.3     1  UNL1       -0.3794
     31 O          16.1005   72.0236   -8.5118 O.3     1  UNL1       -0.3794
     32 O          20.7790   71.0590   -8.7827 O.3     1  UNL1       -0.3775
     33 C          18.3908   71.3557   -8.6837 C.3     1  UNL1        0.1715
     34 C          17.2068   71.5675   -7.7381 C.3     1  UNL1        0.1694
     35 C          19.6684   71.0816   -7.8925 C.3     1  UNL1        0.1967
     36 C          17.5484   72.5859   -6.6421 C.3     1  UNL1        0.1761
     37 C          19.8888   72.1256   -6.7962 C.3     1  UNL1        0.2704
     38 H          17.2948   70.3953  -10.0202 H       1  UNL1        0.2105
     39 H          15.8954   71.3718   -9.2005 H       1  UNL1        0.2105
     40 H          20.6274   70.3941   -9.4717 H       1  UNL1        0.2106
     41 O          16.2536   71.4230   -5.0051 O.3     1  UNL1       -0.3794
     42 C          16.4399   72.6953   -5.5974 C.3     1  UNL1        0.1693
     43 H          15.5511   71.4774   -4.3378 H       1  UNL1        0.2105
@<TRIPOS>UNITY_ATOM_ATTR
2 1
charge -1
26 1
charge -1
@<TRIPOS>BOND
     1    25    28    1
     2    25    24    1
     3    25    26    1
     4    25    27    2
     5     1     4    1
     6     1    24    1
     7     1     2    1
     8     1     3    2
     9     6    11    1
    10     6    12    1
    11    29    36    1
    12    29    37    1
    13     7     9    1
    14     7    13    1
    15     8    10    1
    16     8    14    1
    17    28    37    1
    18     4     5    1
    19    30    33    1
    20    30    38    1
    21    31    34    1
    22    31    39    1
    23    32    35    1
    24    32    40    1
    25    41    42    1
    26    41    43    1
    27    15    19    2
    28    16    22    2
    29    17    12    1
    30    17    19   ar
    31    17    20   ar
    32    18    19   ar
    33    18    22   ar
    34    18    23    1
    35     9    10    1
    36     9    11    1
    37    10    12    1
    38    11     5    1
    39    33    34    1
    40    33    35    1
    41    34    36    1
    42    35    37    1
    43    36    42    1
    44    20    21   ar
    45    21    22   ar
