@<TRIPOS>MOLECULE
*****
 43 45 0 0 0
SMALL
GASTEIGER

@<TRIPOS>ATOM
      1 P          22.6554   71.3835   -2.3820 P.3     1  UNL1        0.2189
      2 O          22.0927   72.7347   -3.0710 O.co2   1  UNL1       -0.4371
      3 O          24.0144   70.9522   -2.8495 O.2     1  UNL1       -0.5170
      4 O          21.4640   70.3107   -2.6006 O.3     1  UNL1       -0.3112
      5 C          20.7581   70.3253   -3.8291 C.3     1  UNL1        0.1811
      6 O          18.9090   71.5222   -4.7893 O.3     1  UNL1       -0.3308
      7 O          17.2439   70.3342   -2.5968 O.3     1  UNL1       -0.3794
      8 O          16.6277   68.7553   -4.7332 O.3     1  UNL1       -0.3779
      9 C          18.3315   69.7570   -3.3173 C.3     1  UNL1        0.1713
     10 C          17.8943   69.3816   -4.7179 C.3     1  UNL1        0.1895
     11 C          19.3518   70.8561   -3.5866 C.3     1  UNL1        0.1764
     12 C          17.8884   70.7298   -5.4181 C.3     1  UNL1        0.2383
     13 H          16.5793   69.6511   -2.4130 H       1  UNL1        0.2105
     14 H          16.6833   67.9018   -4.2759 H       1  UNL1        0.2106
     15 O          15.9505   70.2691   -7.4207 O.2     1  UNL1       -0.2464
     16 O          19.1241   70.3265  -10.7623 O.2     1  UNL1       -0.2670
     17 N          18.1804   70.6203   -6.8196 N.ar    1  UNL1       -0.2551
     18 N          17.5323   70.2982   -9.0829 N.ar    1  UNL1       -0.2743
     19 C          17.1345   70.3872   -7.7428 C.ar    1  UNL1        0.3323
     20 C          19.4916   70.7442   -7.2660 C.ar    1  UNL1        0.0869
     21 C          19.8544   70.6555   -8.5473 C.ar    1  UNL1        0.0795
     22 C          18.8224   70.4131   -9.5760 C.ar    1  UNL1        0.2626
     23 H          16.8207   70.1358   -9.7440 H       1  UNL1        0.1734
     24 O          22.5611   71.7144   -0.8025 O.3     1  UNL1       -0.2703
     25 P          21.2989   71.7199    0.2074 P.3     1  UNL1        0.2208
     26 O          21.3241   70.2313    0.8408 O.co2   1  UNL1       -0.4371
     27 O          19.9965   72.0965   -0.4375 O.2     1  UNL1       -0.5170
     28 O          21.7495   72.6862    1.4191 O.3     1  UNL1       -0.2858
     29 O          23.2551   71.4103    2.7312 O.3     1  UNL1       -0.3258
     30 O          23.2478   74.8991    4.9401 O.3     1  UNL1       -0.3794
     31 O          25.5564   74.2176    3.3736 O.3     1  UNL1       -0.3794
     32 O          20.7933   73.9469    3.7367 O.3     1  UNL1       -0.3775
     33 C          23.1962   74.1123    3.7470 C.3     1  UNL1        0.1715
     34 C          24.4939   73.3081    3.6463 C.3     1  UNL1        0.1694
     35 C          21.9892   73.1787    3.8165 C.3     1  UNL1        0.1967
     36 C          24.4031   72.2459    2.5424 C.3     1  UNL1        0.1761
     37 C          22.0211   72.1303    2.7030 C.3     1  UNL1        0.2704
     38 H          24.0118   75.4944    4.9022 H       1  UNL1        0.2105
     39 H          25.6025   74.8833    4.0777 H       1  UNL1        0.2105
     40 H          20.7850   74.6066    4.4470 H       1  UNL1        0.2106
     41 O          25.1785   69.9859    2.5476 O.3     1  UNL1       -0.3794
     42 C          25.6246   71.3294    2.5288 C.3     1  UNL1        0.1693
     43 H          25.9453   69.3911    2.5389 H       1  UNL1        0.2105
@<TRIPOS>UNITY_ATOM_ATTR
2 1
charge -1
26 1
charge -1
@<TRIPOS>BOND
     1    25    28    1
     2    25    24    1
     3    25    26    1
     4    25    27    2
     5     1     4    1
     6     1    24    1
     7     1     2    1
     8     1     3    2
     9     6    11    1
    10     6    12    1
    11    29    36    1
    12    29    37    1
    13     7     9    1
    14     7    13    1
    15     8    10    1
    16     8    14    1
    17    28    37    1
    18     4     5    1
    19    30    33    1
    20    30    38    1
    21    31    34    1
    22    31    39    1
    23    32    35    1
    24    32    40    1
    25    41    42    1
    26    41    43    1
    27    15    19    2
    28    16    22    2
    29    17    12    1
    30    17    19   ar
    31    17    20   ar
    32    18    19   ar
    33    18    22   ar
    34    18    23    1
    35     9    10    1
    36     9    11    1
    37    10    12    1
    38    11     5    1
    39    33    34    1
    40    33    35    1
    41    34    36    1
    42    35    37    1
    43    36    42    1
    44    20    21   ar
    45    21    22   ar
@<TRIPOS>MOLECULE
*****
 43 45 0 0 0
SMALL
GASTEIGER

@<TRIPOS>ATOM
      1 P          23.3988   72.0123   -3.4064 P.3     1  UNL1        0.2189
      2 O          24.1626   72.9283   -4.4995 O.co2   1  UNL1       -0.4371
      3 O          24.1306   70.7666   -3.0011 O.2     1  UNL1       -0.5170
      4 O          21.9298   71.7875   -4.0463 O.3     1  UNL1       -0.3112
      5 C          21.1969   70.6352   -3.6684 C.3     1  UNL1        0.1811
      6 O          19.1859   71.6437   -4.5128 O.3     1  UNL1       -0.3308
      7 O          17.7889   70.3558   -2.1932 O.3     1  UNL1       -0.3794
      8 O          17.1724   68.6865   -4.2596 O.3     1  UNL1       -0.3779
      9 C          18.8722   69.8635   -2.9803 C.3     1  UNL1        0.1713
     10 C          18.3755   69.4232   -4.3415 C.3     1  UNL1        0.1895
     11 C          19.7684   71.0435   -3.3352 C.3     1  UNL1        0.1764
     12 C          18.2001   70.7514   -5.0578 C.3     1  UNL1        0.2383
     13 H          17.2028   69.6201   -1.9540 H       1  UNL1        0.2105
     14 H          17.3359   67.8505   -3.7959 H       1  UNL1        0.2106
     15 O          16.2195   69.9282   -6.8955 O.2     1  UNL1       -0.2464
     16 O          19.0957   70.3623  -10.4704 O.2     1  UNL1       -0.2670
     17 N          18.4040   70.6407   -6.4747 N.ar    1  UNL1       -0.2551
     18 N          17.6532   70.1452   -8.6740 N.ar    1  UNL1       -0.2743
     19 C          17.3440   70.2171   -7.3097 C.ar    1  UNL1        0.3323
     20 C          19.6439   70.9508   -7.0227 C.ar    1  UNL1        0.0869
     21 C          19.9230   70.8758   -8.3257 C.ar    1  UNL1        0.0795
     22 C          18.8704   70.4415   -9.2667 C.ar    1  UNL1        0.2626
     23 H          16.9302   69.8520   -9.2749 H       1  UNL1        0.1734
     24 O          23.1145   73.0485   -2.1988 O.3     1  UNL1       -0.2703
     25 P          23.1593   72.8481   -0.5954 P.3     1  UNL1        0.2208
     26 O          21.5979   72.7081   -0.1952 O.co2   1  UNL1       -0.4371
     27 O          23.8922   73.9325    0.1400 O.2     1  UNL1       -0.5170
     28 O          23.7682   71.3682   -0.3855 O.3     1  UNL1       -0.2858
     29 O          24.8761   71.4933    1.7058 O.3     1  UNL1       -0.3258
     30 O          20.9993   72.1371    2.9734 O.3     1  UNL1       -0.3794
     31 O          22.8644   74.3209    2.9495 O.3     1  UNL1       -0.3794
     32 O          21.5305   70.2261    0.8650 O.3     1  UNL1       -0.3775
     33 C          22.1082   72.2271    2.0747 C.3     1  UNL1        0.1715
     34 C          23.2467   72.9576    2.7896 C.3     1  UNL1        0.1694
     35 C          22.5414   70.8183    1.6737 C.3     1  UNL1        0.1967
     36 C          24.5545   72.8594    1.9926 C.3     1  UNL1        0.1761
     37 C          23.8776   70.8287    0.9291 C.3     1  UNL1        0.2704
     38 H          20.7190   73.0284    3.2315 H       1  UNL1        0.2105
     39 H          22.0370   74.3689    3.4539 H       1  UNL1        0.2105
     40 H          20.6897   70.2252    1.3476 H       1  UNL1        0.2106
     41 O          26.6946   72.4202    2.9601 O.3     1  UNL1       -0.3794
     42 C          25.7377   73.4443    2.7608 C.3     1  UNL1        0.1693
     43 H          27.4536   72.7780    3.4476 H       1  UNL1        0.2105
@<TRIPOS>UNITY_ATOM_ATTR
2 1
charge -1
26 1
charge -1
@<TRIPOS>BOND
     1    25    28    1
     2    25    24    1
     3    25    26    1
     4    25    27    2
     5     1     4    1
     6     1    24    1
     7     1     2    1
     8     1     3    2
     9     6    11    1
    10     6    12    1
    11    29    36    1
    12    29    37    1
    13     7     9    1
    14     7    13    1
    15     8    10    1
    16     8    14    1
    17    28    37    1
    18     4     5    1
    19    30    33    1
    20    30    38    1
    21    31    34    1
    22    31    39    1
    23    32    35    1
    24    32    40    1
    25    41    42    1
    26    41    43    1
    27    15    19    2
    28    16    22    2
    29    17    12    1
    30    17    19   ar
    31    17    20   ar
    32    18    19   ar
    33    18    22   ar
    34    18    23    1
    35     9    10    1
    36     9    11    1
    37    10    12    1
    38    11     5    1
    39    33    34    1
    40    33    35    1
    41    34    36    1
    42    35    37    1
    43    36    42    1
    44    20    21   ar
    45    21    22   ar
@<TRIPOS>MOLECULE
*****
 43 45 0 0 0
SMALL
GASTEIGER

@<TRIPOS>ATOM
      1 P          20.6538   70.8752   -3.5928 P.3     1  UNL1        0.2189
      2 O          21.0987   71.9874   -4.6803 O.co2   1  UNL1       -0.4371
      3 O          20.7000   69.4572   -4.0811 O.2     1  UNL1       -0.5170
      4 O          19.2111   71.3934   -3.0752 O.3     1  UNL1       -0.3112
      5 C          18.5137   72.3458   -3.8591 C.3     1  UNL1        0.1811
      6 O          16.7690   71.9452   -5.4620 O.3     1  UNL1       -0.3308
      7 O          15.4801   70.2454   -3.3548 O.3     1  UNL1       -0.3794
      8 O          16.6510   68.3934   -4.9783 O.3     1  UNL1       -0.3779
      9 C          16.8647   70.4195   -3.6513 C.3     1  UNL1        0.1713
     10 C          17.2265   69.6829   -4.9242 C.3     1  UNL1        0.1895
     11 C          17.0793   71.8733   -4.0532 C.3     1  UNL1        0.1764
     12 C          16.6785   70.6130   -5.9931 C.3     1  UNL1        0.2383
     13 H          15.3185   69.3243   -3.0952 H       1  UNL1        0.2105
     14 H          17.0319   67.8396   -4.2791 H       1  UNL1        0.2106
     15 O          15.5365   70.6984   -8.5751 O.2     1  UNL1       -0.2464
     16 O          19.6574   70.3469  -10.6087 O.2     1  UNL1       -0.2670
     17 N          17.4296   70.5461   -7.2148 N.ar    1  UNL1       -0.2551
     18 N          17.5894   70.5235   -9.5856 N.ar    1  UNL1       -0.2743
     19 C          16.7596   70.5962   -8.4594 C.ar    1  UNL1        0.3323
     20 C          18.8149   70.4325   -7.1713 C.ar    1  UNL1        0.0869
     21 C          19.5917   70.3630   -8.2544 C.ar    1  UNL1        0.0795
     22 C          18.9705   70.4086   -9.5938 C.ar    1  UNL1        0.2626
     23 H          17.1446   70.5561  -10.4636 H       1  UNL1        0.1734
     24 O          21.6234   71.1863   -2.3373 O.3     1  UNL1       -0.2703
     25 P          23.1429   71.7347   -2.2799 P.3     1  UNL1        0.2208
     26 O          23.0344   73.2001   -2.9569 O.co2   1  UNL1       -0.4371
     27 O          24.1494   70.8271   -2.9258 O.2     1  UNL1       -0.5170
     28 O          23.4128   72.0273   -0.7158 O.3     1  UNL1       -0.2858
     29 O          24.7276   70.9704    0.9488 O.3     1  UNL1       -0.3258
     30 O          21.3239   71.7091    3.1669 O.3     1  UNL1       -0.3794
     31 O          23.6952   73.2552    3.6512 O.3     1  UNL1       -0.3794
     32 O          21.0950   70.9021    0.3964 O.3     1  UNL1       -0.3775
     33 C          22.3148   71.9797    2.1718 C.3     1  UNL1        0.1715
     34 C          23.6768   72.0683    2.8630 C.3     1  UNL1        0.1694
     35 C          22.3074   70.8527    1.1407 C.3     1  UNL1        0.1967
     36 C          24.8182   72.0902    1.8374 C.3     1  UNL1        0.1761
     37 C          23.5108   70.9398    0.2002 C.3     1  UNL1        0.2704
     38 H          21.3230   72.4212    3.8245 H       1  UNL1        0.2105
     39 H          22.9693   73.2289    4.2944 H       1  UNL1        0.2105
     40 H          20.3408   70.8458    1.0030 H       1  UNL1        0.2106
     41 O          26.6159   70.6694    2.5144 O.3     1  UNL1       -0.3794
     42 C          26.1893   72.0193    2.5060 C.3     1  UNL1        0.1693
     43 H          27.4876   70.6091    2.9367 H       1  UNL1        0.2105
@<TRIPOS>UNITY_ATOM_ATTR
2 1
charge -1
26 1
charge -1
@<TRIPOS>BOND
     1    25    28    1
     2    25    24    1
     3    25    26    1
     4    25    27    2
     5     1     4    1
     6     1    24    1
     7     1     2    1
     8     1     3    2
     9     6    11    1
    10     6    12    1
    11    29    36    1
    12    29    37    1
    13     7     9    1
    14     7    13    1
    15     8    10    1
    16     8    14    1
    17    28    37    1
    18     4     5    1
    19    30    33    1
    20    30    38    1
    21    31    34    1
    22    31    39    1
    23    32    35    1
    24    32    40    1
    25    41    42    1
    26    41    43    1
    27    15    19    2
    28    16    22    2
    29    17    12    1
    30    17    19   ar
    31    17    20   ar
    32    18    19   ar
    33    18    22   ar
    34    18    23    1
    35     9    10    1
    36     9    11    1
    37    10    12    1
    38    11     5    1
    39    33    34    1
    40    33    35    1
    41    34    36    1
    42    35    37    1
    43    36    42    1
    44    20    21   ar
    45    21    22   ar
@<TRIPOS>MOLECULE
*****
 43 45 0 0 0
SMALL
GASTEIGER

@<TRIPOS>ATOM
      1 P          22.2317   73.5749   -2.5500 P.3     1  UNL1        0.2189
      2 O          21.9878   75.1711   -2.4492 O.co2   1  UNL1       -0.4371
      3 O          23.6605   73.1415   -2.4014 O.2     1  UNL1       -0.5170
      4 O          21.5120   73.1589   -3.9381 O.3     1  UNL1       -0.3112
      5 C          22.0234   72.0517   -4.6595 C.3     1  UNL1        0.1811
      6 O          21.0408   71.2533   -6.7017 O.3     1  UNL1       -0.3308
      7 O          21.4794   74.0187   -7.7746 O.3     1  UNL1       -0.3794
      8 O          18.8265   74.0398   -7.1435 O.3     1  UNL1       -0.3779
      9 C          21.1186   73.6090   -6.4565 C.3     1  UNL1        0.1713
     10 C          19.6707   73.1666   -6.4212 C.3     1  UNL1        0.1895
     11 C          21.8554   72.3110   -6.1504 C.3     1  UNL1        0.1764
     12 C          19.7489   71.7824   -7.0424 C.3     1  UNL1        0.2383
     13 H          21.0213   74.8461   -7.9926 H       1  UNL1        0.2105
     14 H          18.8100   74.9068   -6.7089 H       1  UNL1        0.2106
     15 O          17.6318   70.7362   -8.5920 O.2     1  UNL1       -0.2464
     16 O          15.9184   68.4011   -5.0069 O.2     1  UNL1       -0.2670
     17 N          18.7356   70.8983   -6.5396 N.ar    1  UNL1       -0.2551
     18 N          16.7805   69.5742   -6.8057 N.ar    1  UNL1       -0.2743
     19 C          17.7155   70.4308   -7.4006 C.ar    1  UNL1        0.3323
     20 C          18.7598   70.5034   -5.2064 C.ar    1  UNL1        0.0869
     21 C          17.8599   69.6870   -4.6542 C.ar    1  UNL1        0.0795
     22 C          16.7613   69.1537   -5.4853 C.ar    1  UNL1        0.2626
     23 H          16.0604   69.2363   -7.3863 H       1  UNL1        0.1734
     24 O          21.2290   72.9825   -1.4290 O.3     1  UNL1       -0.2703
     25 P          21.3006   71.6278   -0.5501 P.3     1  UNL1        0.2208
     26 O          22.7894   71.0696   -0.8494 O.co2   1  UNL1       -0.4371
     27 O          20.2016   70.6471   -0.8404 O.2     1  UNL1       -0.5170
     28 O          21.3561   72.1365    0.9807 O.3     1  UNL1       -0.2858
     29 O          20.5988   74.1343    2.0061 O.3     1  UNL1       -0.3258
     30 O          24.1289   73.6221    4.0863 O.3     1  UNL1       -0.3794
     31 O          21.6234   73.1415    5.4052 O.3     1  UNL1       -0.3794
     32 O          24.0128   72.9954    1.2626 O.3     1  UNL1       -0.3775
     33 C          22.9417   73.1990    3.4103 C.3     1  UNL1        0.1715
     34 C          21.7359   73.7916    4.1422 C.3     1  UNL1        0.1694
     35 C          22.9881   73.6907    1.9648 C.3     1  UNL1        0.1967
     36 C          20.4479   73.6057    3.3289 C.3     1  UNL1        0.1761
     37 C          21.6427   73.5041    1.2612 C.3     1  UNL1        0.2704
     38 H          24.1059   73.3127    5.0045 H       1  UNL1        0.2105
     39 H          22.4433   73.2661    5.9085 H       1  UNL1        0.2105
     40 H          24.8594   73.1216    1.7177 H       1  UNL1        0.2106
     41 O          18.7172   73.4940    4.9723 O.3     1  UNL1       -0.3794
     42 C          19.2611   74.3264    3.9646 C.3     1  UNL1        0.1693
     43 H          17.9610   73.9400    5.3859 H       1  UNL1        0.2105
@<TRIPOS>UNITY_ATOM_ATTR
2 1
charge -1
26 1
charge -1
@<TRIPOS>BOND
     1    25    28    1
     2    25    24    1
     3    25    26    1
     4    25    27    2
     5     1     4    1
     6     1    24    1
     7     1     2    1
     8     1     3    2
     9     6    11    1
    10     6    12    1
    11    29    36    1
    12    29    37    1
    13     7     9    1
    14     7    13    1
    15     8    10    1
    16     8    14    1
    17    28    37    1
    18     4     5    1
    19    30    33    1
    20    30    38    1
    21    31    34    1
    22    31    39    1
    23    32    35    1
    24    32    40    1
    25    41    42    1
    26    41    43    1
    27    15    19    2
    28    16    22    2
    29    17    12    1
    30    17    19   ar
    31    17    20   ar
    32    18    19   ar
    33    18    22   ar
    34    18    23    1
    35     9    10    1
    36     9    11    1
    37    10    12    1
    38    11     5    1
    39    33    34    1
    40    33    35    1
    41    34    36    1
    42    35    37    1
    43    36    42    1
    44    20    21   ar
    45    21    22   ar
@<TRIPOS>MOLECULE
*****
 43 45 0 0 0
SMALL
GASTEIGER

@<TRIPOS>ATOM
      1 P          21.4058   72.0490   -1.9280 P.3     1  UNL1        0.2189
      2 O          21.6723   73.3511   -2.8506 O.co2   1  UNL1       -0.4371
      3 O          22.4168   70.9501   -2.0756 O.2     1  UNL1       -0.5170
      4 O          19.8748   71.6445   -2.2599 O.3     1  UNL1       -0.3112
      5 C          19.4695   71.5871   -3.6165 C.3     1  UNL1        0.1811
      6 O          17.5392   71.8945   -5.0140 O.3     1  UNL1       -0.3308
      7 O          16.0425   70.2748   -2.9825 O.3     1  UNL1       -0.3794
      8 O          16.5121   68.4586   -4.9617 O.3     1  UNL1       -0.3779
      9 C          17.3885   70.1348   -3.4340 C.3     1  UNL1        0.1713
     10 C          17.4170   69.5353   -4.8245 C.3     1  UNL1        0.1895
     11 C          17.9493   71.5303   -3.6778 C.3     1  UNL1        0.1764
     12 C          17.0429   70.7272   -5.6892 C.3     1  UNL1        0.2383
     13 H          15.6632   69.3964   -2.8197 H       1  UNL1        0.2105
     14 H          16.7931   67.7255   -4.3923 H       1  UNL1        0.2106
     15 O          15.5688   70.6204   -8.0962 O.2     1  UNL1       -0.2464
     16 O          19.4018   70.4713  -10.6510 O.2     1  UNL1       -0.2670
     17 N          17.6301   70.6603   -6.9977 N.ar    1  UNL1       -0.2551
     18 N          17.4786   70.5464   -9.3663 N.ar    1  UNL1       -0.2743
     19 C          16.8007   70.6094   -8.1422 C.ar    1  UNL1        0.3323
     20 C          19.0137   70.6462   -7.1364 C.ar    1  UNL1        0.0869
     21 C          19.6446   70.5846   -8.3109 C.ar    1  UNL1        0.0795
     22 C          18.8513   70.5286   -9.5557 C.ar    1  UNL1        0.2626
     23 H          16.9213   70.5097  -10.1774 H       1  UNL1        0.1734
     24 O          21.3025   72.6727   -0.4403 O.3     1  UNL1       -0.2703
     25 P          21.2846   71.9602    1.0106 P.3     1  UNL1        0.2208
     26 O          21.3144   70.3833    0.6499 O.co2   1  UNL1       -0.4371
     27 O          20.1366   72.3739    1.8851 O.2     1  UNL1       -0.5170
     28 O          22.7426   72.2637    1.6327 O.3     1  UNL1       -0.2858
     29 O          24.4459   73.5975    0.6650 O.3     1  UNL1       -0.3258
     30 O          26.8058   70.8839    2.6943 O.3     1  UNL1       -0.3794
     31 O          26.5904   73.5789    3.6633 O.3     1  UNL1       -0.3794
     32 O          24.3778   69.9958    1.3922 O.3     1  UNL1       -0.3775
     33 C          25.6610   71.7155    2.4864 C.3     1  UNL1        0.1715
     34 C          26.1353   73.1660    2.3777 C.3     1  UNL1        0.1694
     35 C          24.9562   71.2826    1.2022 C.3     1  UNL1        0.1967
     36 C          25.0054   74.0833    1.8908 C.3     1  UNL1        0.1761
     37 C          23.8840   72.2886    0.7796 C.3     1  UNL1        0.2704
     38 H          27.2576   71.1532    3.5085 H       1  UNL1        0.2105
     39 H          27.3033   72.9912    3.9593 H       1  UNL1        0.2105
     40 H          25.0666   69.3680    1.6591 H       1  UNL1        0.2106
     41 O          25.2072   75.8353    0.2788 O.3     1  UNL1       -0.3794
     42 C          25.4971   75.5044    1.6244 C.3     1  UNL1        0.1693
     43 H          25.5143   76.7373    0.0950 H       1  UNL1        0.2105
@<TRIPOS>UNITY_ATOM_ATTR
2 1
charge -1
26 1
charge -1
@<TRIPOS>BOND
     1    25    28    1
     2    25    24    1
     3    25    26    1
     4    25    27    2
     5     1     4    1
     6     1    24    1
     7     1     2    1
     8     1     3    2
     9     6    11    1
    10     6    12    1
    11    29    36    1
    12    29    37    1
    13     7     9    1
    14     7    13    1
    15     8    10    1
    16     8    14    1
    17    28    37    1
    18     4     5    1
    19    30    33    1
    20    30    38    1
    21    31    34    1
    22    31    39    1
    23    32    35    1
    24    32    40    1
    25    41    42    1
    26    41    43    1
    27    15    19    2
    28    16    22    2
    29    17    12    1
    30    17    19   ar
    31    17    20   ar
    32    18    19   ar
    33    18    22   ar
    34    18    23    1
    35     9    10    1
    36     9    11    1
    37    10    12    1
    38    11     5    1
    39    33    34    1
    40    33    35    1
    41    34    36    1
    42    35    37    1
    43    36    42    1
    44    20    21   ar
    45    21    22   ar
@<TRIPOS>MOLECULE
*****
 43 45 0 0 0
SMALL
GASTEIGER

@<TRIPOS>ATOM
      1 P          23.4643   72.0385   -3.3326 P.3     1  UNL1        0.2189
      2 O          24.1726   72.8773   -4.5209 O.co2   1  UNL1       -0.4371
      3 O          24.1812   70.7840   -2.9280 O.2     1  UNL1       -0.5170
      4 O          21.9431   71.8432   -3.8483 O.3     1  UNL1       -0.3112
      5 C          21.4806   72.6559   -4.9129 C.3     1  UNL1        0.1811
      6 O          20.6671   70.6100   -5.8754 O.3     1  UNL1       -0.3308
      7 O          21.0692   71.9231   -8.5409 O.3     1  UNL1       -0.3794
      8 O          18.3814   72.1738   -8.1542 O.3     1  UNL1       -0.3779
      9 C          20.6377   72.4973   -7.3082 C.3     1  UNL1        0.1713
     10 C          19.2087   72.0930   -7.0115 C.3     1  UNL1        0.1895
     11 C          21.4020   71.8156   -6.1801 C.3     1  UNL1        0.1764
     12 C          19.3813   70.6678   -6.5143 C.3     1  UNL1        0.2383
     13 H          20.5951   72.3429   -9.2764 H       1  UNL1        0.2105
     14 H          18.3027   73.0999   -8.4317 H       1  UNL1        0.2106
     15 O          16.7743   69.8286   -7.2052 O.2     1  UNL1       -0.2464
     16 O          15.5907   69.2552   -2.7880 O.2     1  UNL1       -0.2670
     17 N          18.3716   70.2928   -5.5650 N.ar    1  UNL1       -0.2551
     18 N          16.1872   69.5436   -5.0052 N.ar    1  UNL1       -0.2743
     19 C          17.0939   69.8872   -6.0160 C.ar    1  UNL1        0.3323
     20 C          18.6528   70.3292   -4.2035 C.ar    1  UNL1        0.0869
     21 C          17.7766   69.9996   -3.2523 C.ar    1  UNL1        0.0795
     22 C          16.4189   69.5647   -3.6390 C.ar    1  UNL1        0.2626
     23 H          15.2905   69.2583   -5.2957 H       1  UNL1        0.1734
     24 O          23.3107   73.1352   -2.1551 O.3     1  UNL1       -0.2703
     25 P          23.3503   72.9785   -0.5467 P.3     1  UNL1        0.2208
     26 O          24.3894   74.1303   -0.0872 O.co2   1  UNL1       -0.4371
     27 O          23.7048   71.5992   -0.0714 O.2     1  UNL1       -0.5170
     28 O          21.9090   73.5076   -0.0491 O.3     1  UNL1       -0.2858
     29 O          21.7183   71.9675    1.7421 O.3     1  UNL1       -0.3258
     30 O          18.8883   74.7258    2.9394 O.3     1  UNL1       -0.3794
     31 O          21.3891   74.5603    4.3417 O.3     1  UNL1       -0.3794
     32 O          19.1649   74.0655    0.1345 O.3     1  UNL1       -0.3775
     33 C          20.1108   74.2905    2.3382 C.3     1  UNL1        0.1715
     34 C          20.9447   73.5811    3.4069 C.3     1  UNL1        0.1694
     35 C          19.7899   73.3389    1.1872 C.3     1  UNL1        0.1967
     36 C          22.1441   72.8555    2.7824 C.3     1  UNL1        0.1761
     37 C          21.0450   72.6327    0.6715 C.3     1  UNL1        0.2704
     38 H          19.0849   75.3308    3.6707 H       1  UNL1        0.2105
     39 H          20.6222   75.0115    4.7284 H       1  UNL1        0.2105
     40 H          18.3716   74.5076    0.4736 H       1  UNL1        0.2106
     41 O          23.6755   71.0518    3.1148 O.3     1  UNL1       -0.3794
     42 C          22.8994   72.0122    3.8073 C.3     1  UNL1        0.1693
     43 H          24.1621   70.5080    3.7545 H       1  UNL1        0.2105
@<TRIPOS>UNITY_ATOM_ATTR
2 1
charge -1
26 1
charge -1
@<TRIPOS>BOND
     1    25    28    1
     2    25    24    1
     3    25    26    1
     4    25    27    2
     5     1     4    1
     6     1    24    1
     7     1     2    1
     8     1     3    2
     9     6    11    1
    10     6    12    1
    11    29    36    1
    12    29    37    1
    13     7     9    1
    14     7    13    1
    15     8    10    1
    16     8    14    1
    17    28    37    1
    18     4     5    1
    19    30    33    1
    20    30    38    1
    21    31    34    1
    22    31    39    1
    23    32    35    1
    24    32    40    1
    25    41    42    1
    26    41    43    1
    27    15    19    2
    28    16    22    2
    29    17    12    1
    30    17    19   ar
    31    17    20   ar
    32    18    19   ar
    33    18    22   ar
    34    18    23    1
    35     9    10    1
    36     9    11    1
    37    10    12    1
    38    11     5    1
    39    33    34    1
    40    33    35    1
    41    34    36    1
    42    35    37    1
    43    36    42    1
    44    20    21   ar
    45    21    22   ar
@<TRIPOS>MOLECULE
*****
 43 45 0 0 0
SMALL
GASTEIGER

@<TRIPOS>ATOM
      1 P          23.5332   71.8926   -3.1310 P.3     1  UNL1        0.2189
      2 O          24.2089   73.0403   -4.0496 O.co2   1  UNL1       -0.4371
      3 O          24.3349   70.6309   -3.0014 O.2     1  UNL1       -0.5170
      4 O          22.0491   71.7215   -3.7524 O.3     1  UNL1       -0.3112
      5 C          21.3055   72.8882   -4.0581 C.3     1  UNL1        0.1811
      6 O          18.9170   72.8097   -4.3090 O.3     1  UNL1       -0.3308
      7 O          18.8381   71.8472   -1.4703 O.3     1  UNL1       -0.3794
      8 O          18.5181   69.5405   -2.8892 O.3     1  UNL1       -0.3779
      9 C          19.7960   71.5702   -2.4906 C.3     1  UNL1        0.1713
     10 C          19.2207   70.6018   -3.5030 C.3     1  UNL1        0.1895
     11 C          19.9729   72.8335   -3.3237 C.3     1  UNL1        0.1764
     12 C          18.3155   71.5048   -4.3236 C.3     1  UNL1        0.2383
     13 H          18.7086   71.0550   -0.9249 H       1  UNL1        0.2105
     14 H          19.1371   68.9951   -2.3791 H       1  UNL1        0.2106
     15 O          16.4484   69.5810   -5.2128 O.2     1  UNL1       -0.2464
     16 O          17.9271   69.8907   -9.5670 O.2     1  UNL1       -0.2670
     17 N          18.1905   71.0642   -5.6844 N.ar    1  UNL1       -0.2551
     18 N          17.1861   69.7369   -7.3802 N.ar    1  UNL1       -0.2743
     19 C          17.2209   70.0927   -6.0259 C.ar    1  UNL1        0.3323
     20 C          19.0232   71.5945   -6.6638 C.ar    1  UNL1        0.0869
     21 C          18.9781   71.2436   -7.9507 C.ar    1  UNL1        0.0795
     22 C          17.9933   70.2345   -8.3909 C.ar    1  UNL1        0.2626
     23 H          16.5188   69.0614   -7.6414 H       1  UNL1        0.1734
     24 O          23.2565   72.6601   -1.7355 O.3     1  UNL1       -0.2703
     25 P          22.9577   72.0913   -0.2523 P.3     1  UNL1        0.2208
     26 O          24.3130   72.4408    0.5592 O.co2   1  UNL1       -0.4371
     27 O          22.5706   70.6412   -0.2158 O.2     1  UNL1       -0.5170
     28 O          21.8490   73.0951    0.3545 O.3     1  UNL1       -0.2858
     29 O          21.4268   72.0994    2.4633 O.3     1  UNL1       -0.3258
     30 O          19.1839   75.5392    2.8969 O.3     1  UNL1       -0.3794
     31 O          21.6484   75.2615    4.3450 O.3     1  UNL1       -0.3794
     32 O          19.2597   74.1771    0.3437 O.3     1  UNL1       -0.3775
     33 C          20.2893   74.7530    2.4437 C.3     1  UNL1        0.1715
     34 C          21.0071   74.1836    3.6690 C.3     1  UNL1        0.1694
     35 C          19.7686   73.6260    1.5536 C.3     1  UNL1        0.1967
     36 C          22.0358   73.1195    3.2635 C.3     1  UNL1        0.1761
     37 C          20.8587   72.5966    1.2501 C.3     1  UNL1        0.2704
     38 H          19.5077   76.2569    3.4622 H       1  UNL1        0.2105
     39 H          20.9879   75.9266    4.5951 H       1  UNL1        0.2105
     40 H          18.5704   74.8270    0.5494 H       1  UNL1        0.2106
     41 O          21.9859   72.8841    5.6407 O.3     1  UNL1       -0.3794
     42 C          22.6506   72.4264    4.4775 C.3     1  UNL1        0.1693
     43 H          22.3665   72.4512    6.4213 H       1  UNL1        0.2105
@<TRIPOS>UNITY_ATOM_ATTR
2 1
charge -1
26 1
charge -1
@<TRIPOS>BOND
     1    25    28    1
     2    25    24    1
     3    25    26    1
     4    25    27    2
     5     1     4    1
     6     1    24    1
     7     1     2    1
     8     1     3    2
     9     6    11    1
    10     6    12    1
    11    29    36    1
    12    29    37    1
    13     7     9    1
    14     7    13    1
    15     8    10    1
    16     8    14    1
    17    28    37    1
    18     4     5    1
    19    30    33    1
    20    30    38    1
    21    31    34    1
    22    31    39    1
    23    32    35    1
    24    32    40    1
    25    41    42    1
    26    41    43    1
    27    15    19    2
    28    16    22    2
    29    17    12    1
    30    17    19   ar
    31    17    20   ar
    32    18    19   ar
    33    18    22   ar
    34    18    23    1
    35     9    10    1
    36     9    11    1
    37    10    12    1
    38    11     5    1
    39    33    34    1
    40    33    35    1
    41    34    36    1
    42    35    37    1
    43    36    42    1
    44    20    21   ar
    45    21    22   ar
@<TRIPOS>MOLECULE
*****
 43 45 0 0 0
SMALL
GASTEIGER

@<TRIPOS>ATOM
      1 P          20.5993   73.8806   -3.2205 P.3     1  UNL1        0.2189
      2 O          19.3153   74.7475   -2.7542 O.co2   1  UNL1       -0.4371
      3 O          20.9326   73.9769   -4.6803 O.2     1  UNL1       -0.5170
      4 O          20.2847   72.3927   -2.6683 O.3     1  UNL1       -0.3112
      5 C          19.7742   71.4295   -3.5735 C.3     1  UNL1        0.1811
      6 O          17.8397   71.9428   -4.9033 O.3     1  UNL1       -0.3308
      7 O          16.2590   70.4364   -2.8483 O.3     1  UNL1       -0.3794
      8 O          16.4925   68.6191   -4.8680 O.3     1  UNL1       -0.3779
      9 C          17.5710   70.1776   -3.3451 C.3     1  UNL1        0.1713
     10 C          17.4995   69.6028   -4.7444 C.3     1  UNL1        0.1895
     11 C          18.2542   71.5179   -3.5865 C.3     1  UNL1        0.1764
     12 C          17.2140   70.8397   -5.5790 C.3     1  UNL1        0.2383
     13 H          15.8030   69.5951   -2.6862 H       1  UNL1        0.2105
     14 H          16.7198   67.8527   -4.3187 H       1  UNL1        0.2106
     15 O          15.6654   70.3923   -7.8984 O.2     1  UNL1       -0.2464
     16 O          19.3841   70.4763  -10.6197 O.2     1  UNL1       -0.2670
     17 N          17.7516   70.7407   -6.9066 N.ar    1  UNL1       -0.2551
     18 N          17.5183   70.4347   -9.2515 N.ar    1  UNL1       -0.2743
     19 C          16.8877   70.5136   -8.0032 C.ar    1  UNL1        0.3323
     20 C          19.1211   70.8687   -7.1111 C.ar    1  UNL1        0.0869
     21 C          19.7069   70.7897   -8.3077 C.ar    1  UNL1        0.0795
     22 C          18.8754   70.5541   -9.5056 C.ar    1  UNL1        0.2626
     23 H          16.9363   70.2766  -10.0300 H       1  UNL1        0.1734
     24 O          21.7663   74.3972   -2.2285 O.3     1  UNL1       -0.2703
     25 P          23.1317   73.6865   -1.7350 P.3     1  UNL1        0.2208
     26 O          24.2292   74.8694   -1.8526 O.co2   1  UNL1       -0.4371
     27 O          23.4835   72.4379   -2.4908 O.2     1  UNL1       -0.5170
     28 O          22.9307   73.4733   -0.1478 O.3     1  UNL1       -0.2858
     29 O          23.8457   74.5082    1.7779 O.3     1  UNL1       -0.3258
     30 O          24.0056   70.5693    3.0068 O.3     1  UNL1       -0.3794
     31 O          22.0642   72.3390    4.1673 O.3     1  UNL1       -0.3794
     32 O          24.5926   71.2482    0.2547 O.3     1  UNL1       -0.3775
     33 C          23.4542   71.7012    2.3284 C.3     1  UNL1        0.1715
     34 C          23.1557   72.7842    3.3670 C.3     1  UNL1        0.1694
     35 C          24.4635   72.2067    1.2993 C.3     1  UNL1        0.1967
     36 C          22.8140   74.1196    2.6923 C.3     1  UNL1        0.1761
     37 C          24.0534   73.5642    0.7255 C.3     1  UNL1        0.2704
     38 H          23.3695   70.2431    3.6614 H       1  UNL1        0.2105
     39 H          22.2927   71.4949    4.5873 H       1  UNL1        0.2105
     40 H          24.8529   70.3934    0.6308 H       1  UNL1        0.2106
     41 O          21.3445   75.7513    3.6342 O.3     1  UNL1       -0.3794
     42 C          22.6672   75.2517    3.7066 C.3     1  UNL1        0.1693
     43 H          21.2364   76.4724    4.2745 H       1  UNL1        0.2105
@<TRIPOS>UNITY_ATOM_ATTR
2 1
charge -1
26 1
charge -1
@<TRIPOS>BOND
     1    25    28    1
     2    25    24    1
     3    25    26    1
     4    25    27    2
     5     1     4    1
     6     1    24    1
     7     1     2    1
     8     1     3    2
     9     6    11    1
    10     6    12    1
    11    29    36    1
    12    29    37    1
    13     7     9    1
    14     7    13    1
    15     8    10    1
    16     8    14    1
    17    28    37    1
    18     4     5    1
    19    30    33    1
    20    30    38    1
    21    31    34    1
    22    31    39    1
    23    32    35    1
    24    32    40    1
    25    41    42    1
    26    41    43    1
    27    15    19    2
    28    16    22    2
    29    17    12    1
    30    17    19   ar
    31    17    20   ar
    32    18    19   ar
    33    18    22   ar
    34    18    23    1
    35     9    10    1
    36     9    11    1
    37    10    12    1
    38    11     5    1
    39    33    34    1
    40    33    35    1
    41    34    36    1
    42    35    37    1
    43    36    42    1
    44    20    21   ar
    45    21    22   ar
@<TRIPOS>MOLECULE
*****
 43 45 0 0 0
SMALL
GASTEIGER

@<TRIPOS>ATOM
      1 P          20.6331   71.2417   -1.0790 P.3     1  UNL1        0.2189
      2 O          20.8080   70.5600    0.3778 O.co2   1  UNL1       -0.4371
      3 O          20.2445   72.6908   -1.0581 O.2     1  UNL1       -0.5170
      4 O          19.6125   70.2516   -1.8511 O.3     1  UNL1       -0.3112
      5 C          19.3037   70.5225   -3.2072 C.3     1  UNL1        0.1811
      6 O          17.6048   71.5188   -4.5837 O.3     1  UNL1       -0.3308
      7 O          15.6280   69.9986   -2.9188 O.3     1  UNL1       -0.3794
      8 O          15.7986   68.4774   -5.1756 O.3     1  UNL1       -0.3779
      9 C          16.9323   69.6117   -3.3482 C.3     1  UNL1        0.1713
     10 C          16.9188   69.2629   -4.8219 C.3     1  UNL1        0.1895
     11 C          17.8211   70.8490   -3.3224 C.3     1  UNL1        0.1764
     12 C          16.8979   70.6365   -5.4707 C.3     1  UNL1        0.2383
     13 H          15.0424   69.2247   -2.9266 H       1  UNL1        0.2105
     14 H          15.8580   67.6138   -4.7381 H       1  UNL1        0.2106
     15 O          15.5677   70.2574   -7.9333 O.2     1  UNL1       -0.2464
     16 O          19.4832   70.6946  -10.3248 O.2     1  UNL1       -0.2670
     17 N          17.5452   70.6468   -6.7522 N.ar    1  UNL1       -0.2551
     18 N          17.5184   70.4756   -9.1221 N.ar    1  UNL1       -0.2743
     19 C          16.7860   70.4455   -7.9285 C.ar    1  UNL1        0.3323
     20 C          18.9177   70.8550   -6.8337 C.ar    1  UNL1        0.0869
     21 C          19.6013   70.8796   -7.9797 C.ar    1  UNL1        0.0795
     22 C          18.8830   70.6777   -9.2546 C.ar    1  UNL1        0.2626
     23 H          17.0105   70.3374   -9.9544 H       1  UNL1        0.1734
     24 O          22.0490   70.9351   -1.7961 O.3     1  UNL1       -0.2703
     25 P          23.1501   71.9284   -2.4395 P.3     1  UNL1        0.2208
     26 O          24.1978   70.9155   -3.1423 O.co2   1  UNL1       -0.4371
     27 O          23.7712   72.8780   -1.4565 O.2     1  UNL1       -0.5170
     28 O          22.3867   72.6429   -3.6690 O.3     1  UNL1       -0.2858
     29 O          23.2828   73.9711   -5.4153 O.3     1  UNL1       -0.3258
     30 O          19.6613   75.8914   -4.9178 O.3     1  UNL1       -0.3794
     31 O          20.0955   74.2640   -7.2440 O.3     1  UNL1       -0.3794
     32 O          21.0990   74.8999   -2.6093 O.3     1  UNL1       -0.3775
     33 C          20.5475   74.7694   -4.9502 C.3     1  UNL1        0.1715
     34 C          21.1372   74.6646   -6.3581 C.3     1  UNL1        0.1694
     35 C          21.6540   74.9772   -3.9179 C.3     1  UNL1        0.1967
     36 C          22.2926   73.6555   -6.4010 C.3     1  UNL1        0.1761
     37 C          22.7769   73.9510   -4.0791 C.3     1  UNL1        0.2704
     38 H          18.9560   75.7655   -5.5707 H       1  UNL1        0.2105
     39 H          19.3720   74.9093   -7.2070 H       1  UNL1        0.2105
     40 H          20.3897   75.5546   -2.5198 H       1  UNL1        0.2106
     41 O          22.3256   72.7416   -8.6084 O.3     1  UNL1       -0.3794
     42 C          22.9974   73.6504   -7.7557 C.3     1  UNL1        0.1693
     43 H          22.7631   72.7281   -9.4745 H       1  UNL1        0.2105
@<TRIPOS>UNITY_ATOM_ATTR
2 1
charge -1
26 1
charge -1
@<TRIPOS>BOND
     1    25    28    1
     2    25    24    1
     3    25    26    1
     4    25    27    2
     5     1     4    1
     6     1    24    1
     7     1     2    1
     8     1     3    2
     9     6    11    1
    10     6    12    1
    11    29    36    1
    12    29    37    1
    13     7     9    1
    14     7    13    1
    15     8    10    1
    16     8    14    1
    17    28    37    1
    18     4     5    1
    19    30    33    1
    20    30    38    1
    21    31    34    1
    22    31    39    1
    23    32    35    1
    24    32    40    1
    25    41    42    1
    26    41    43    1
    27    15    19    2
    28    16    22    2
    29    17    12    1
    30    17    19   ar
    31    17    20   ar
    32    18    19   ar
    33    18    22   ar
    34    18    23    1
    35     9    10    1
    36     9    11    1
    37    10    12    1
    38    11     5    1
    39    33    34    1
    40    33    35    1
    41    34    36    1
    42    35    37    1
    43    36    42    1
    44    20    21   ar
    45    21    22   ar
@<TRIPOS>MOLECULE
*****
 43 45 0 0 0
SMALL
GASTEIGER

@<TRIPOS>ATOM
      1 P          22.3273   71.2914    0.6100 P.3     1  UNL1        0.2189
      2 O          21.5711   69.8991    0.9371 O.co2   1  UNL1       -0.4371
      3 O          23.7173   71.1447    0.0643 O.2     1  UNL1       -0.5170
      4 O          22.1973   72.1361    1.9838 O.3     1  UNL1       -0.3112
      5 C          23.3297   72.2280    2.8307 C.3     1  UNL1        0.1811
      6 O          24.5464   73.7094    4.2794 O.3     1  UNL1       -0.3308
      7 O          23.4297   75.9449    2.6222 O.3     1  UNL1       -0.3794
      8 O          25.9647   75.6927    1.6492 O.3     1  UNL1       -0.3779
      9 C          23.8466   74.6423    2.2164 C.3     1  UNL1        0.1713
     10 C          25.3583   74.5499    2.2176 C.3     1  UNL1        0.1895
     11 C          23.4673   73.6631    3.3204 C.3     1  UNL1        0.1764
     12 C          25.6638   74.4013    3.6983 C.3     1  UNL1        0.2383
     13 H          23.6610   76.5876    1.9328 H       1  UNL1        0.2105
     14 H          25.7407   75.7428    0.7068 H       1  UNL1        0.2106
     15 O          27.4131   74.8219    5.8757 O.2     1  UNL1       -0.2464
     16 O          30.2176   71.4273    4.5147 O.2     1  UNL1       -0.2670
     17 N          26.8583   73.6416    3.9376 N.ar    1  UNL1       -0.2551
     18 N          28.8080   73.1312    5.1964 N.ar    1  UNL1       -0.2743
     19 C          27.6682   73.9337    5.0598 C.ar    1  UNL1        0.3323
     20 C          27.2161   72.6197    3.0649 C.ar    1  UNL1        0.0869
     21 C          28.3070   71.8644    3.2085 C.ar    1  UNL1        0.0795
     22 C          29.2069   72.1046    4.3551 C.ar    1  UNL1        0.2626
     23 H          29.3875   73.3167    5.9707 H       1  UNL1        0.1734
     24 O          21.2926   72.0435   -0.3783 O.3     1  UNL1       -0.2703
     25 P          20.4617   71.5038   -1.6555 P.3     1  UNL1        0.2208
     26 O          20.0807   72.8604   -2.4505 O.co2   1  UNL1       -0.4371
     27 O          19.2847   70.6407   -1.3039 O.2     1  UNL1       -0.5170
     28 O          21.5658   70.7825   -2.5859 O.3     1  UNL1       -0.2858
     29 O          20.2857   69.2715   -3.8878 O.3     1  UNL1       -0.3258
     30 O          18.7500   72.8316   -5.3086 O.3     1  UNL1       -0.3794
     31 O          17.1498   71.1852   -3.5833 O.3     1  UNL1       -0.3794
     32 O          21.5744   72.6127   -4.7132 O.3     1  UNL1       -0.3775
     33 C          19.2925   71.9471   -4.3243 C.3     1  UNL1        0.1715
     34 C          18.3582   70.7425   -4.1949 C.3     1  UNL1        0.1694
     35 C          20.6853   71.5022   -4.7664 C.3     1  UNL1        0.1967
     36 C          19.0031   69.6284   -3.3595 C.3     1  UNL1        0.1761
     37 C          21.2142   70.3577   -3.9001 C.3     1  UNL1        0.2704
     38 H          17.8658   73.1182   -5.0337 H       1  UNL1        0.2105
     39 H          16.7530   71.8889   -4.1204 H       1  UNL1        0.2105
     40 H          21.2287   73.3304   -5.2658 H       1  UNL1        0.2106
     41 O          17.3153   68.3878   -2.2101 O.3     1  UNL1       -0.3794
     42 C          18.1558   68.3580   -3.3490 C.3     1  UNL1        0.1693
     43 H          16.7698   67.5854   -2.1905 H       1  UNL1        0.2105
@<TRIPOS>UNITY_ATOM_ATTR
2 1
charge -1
26 1
charge -1
@<TRIPOS>BOND
     1    25    28    1
     2    25    24    1
     3    25    26    1
     4    25    27    2
     5     1     4    1
     6     1    24    1
     7     1     2    1
     8     1     3    2
     9     6    11    1
    10     6    12    1
    11    29    36    1
    12    29    37    1
    13     7     9    1
    14     7    13    1
    15     8    10    1
    16     8    14    1
    17    28    37    1
    18     4     5    1
    19    30    33    1
    20    30    38    1
    21    31    34    1
    22    31    39    1
    23    32    35    1
    24    32    40    1
    25    41    42    1
    26    41    43    1
    27    15    19    2
    28    16    22    2
    29    17    12    1
    30    17    19   ar
    31    17    20   ar
    32    18    19   ar
    33    18    22   ar
    34    18    23    1
    35     9    10    1
    36     9    11    1
    37    10    12    1
    38    11     5    1
    39    33    34    1
    40    33    35    1
    41    34    36    1
    42    35    37    1
    43    36    42    1
    44    20    21   ar
    45    21    22   ar
@<TRIPOS>MOLECULE
*****
 43 45 0 0 0
SMALL
GASTEIGER

@<TRIPOS>ATOM
      1 P          21.0719   72.1183   -1.7729 P.3     1  UNL1        0.2189
      2 O          21.5718   70.6135   -2.0940 O.co2   1  UNL1       -0.4371
      3 O          20.7814   72.3946   -0.3270 O.2     1  UNL1       -0.5170
      4 O          19.8365   72.3432   -2.7932 O.3     1  UNL1       -0.3112
      5 C          19.3132   71.2194   -3.4795 C.3     1  UNL1        0.1811
      6 O          17.5210   71.8765   -4.9389 O.3     1  UNL1       -0.3308
      7 O          15.7105   70.3599   -3.0914 O.3     1  UNL1       -0.3794
      8 O          16.0357   68.6199   -5.1658 O.3     1  UNL1       -0.3779
      9 C          17.0475   70.0620   -3.4901 C.3     1  UNL1        0.1713
     10 C          17.0695   69.5500   -4.9153 C.3     1  UNL1        0.1895
     11 C          17.8049   71.3782   -3.6132 C.3     1  UNL1        0.1764
     12 C          16.9080   70.8327   -5.7133 C.3     1  UNL1        0.2383
     13 H          15.2072   69.5345   -3.0059 H       1  UNL1        0.2105
     14 H          16.1833   67.8215   -4.6352 H       1  UNL1        0.2106
     15 O          15.5409   70.5822   -8.1722 O.2     1  UNL1       -0.2464
     16 O          19.4770   70.5795  -10.5698 O.2     1  UNL1       -0.2670
     17 N          17.5506   70.7646   -6.9954 N.ar    1  UNL1       -0.2551
     18 N          17.5019   70.5812   -9.3640 N.ar    1  UNL1       -0.2743
     19 C          16.7724   70.6382   -8.1696 C.ar    1  UNL1        0.3323
     20 C          18.9375   70.8235   -7.0795 C.ar    1  UNL1        0.0869
     21 C          19.6180   70.7666   -8.2262 C.ar    1  UNL1        0.0795
     22 C          18.8801   70.6345   -9.4990 C.ar    1  UNL1        0.2626
     23 H          16.9807   70.4928  -10.1949 H       1  UNL1        0.1734
     24 O          22.2414   73.0337   -2.4110 O.3     1  UNL1       -0.2703
     25 P          22.3698   74.6378   -2.5635 P.3     1  UNL1        0.2208
     26 O          23.8968   74.9320   -2.1173 O.co2   1  UNL1       -0.4371
     27 O          21.3396   75.4135   -1.7947 O.2     1  UNL1       -0.5170
     28 O          22.3529   74.8994   -4.1561 O.3     1  UNL1       -0.2858
     29 O          20.4697   75.0547   -5.5865 O.3     1  UNL1       -0.3258
     30 O          23.1593   73.3555   -8.2189 O.3     1  UNL1       -0.3794
     31 O          22.4118   76.1102   -8.5365 O.3     1  UNL1       -0.3794
     32 O          23.1393   72.5331   -5.4435 O.3     1  UNL1       -0.3775
     33 C          22.7483   74.1985   -7.1391 C.3     1  UNL1        0.1715
     34 C          21.7274   75.2031   -7.6769 C.3     1  UNL1        0.1694
     35 C          22.1275   73.3365   -6.0414 C.3     1  UNL1        0.1967
     36 C          21.0434   75.9639   -6.5330 C.3     1  UNL1        0.1761
     37 C          21.4313   74.1894   -4.9794 C.3     1  UNL1        0.2704
     38 H          23.5548   73.8967   -8.9191 H       1  UNL1        0.2105
     39 H          22.8396   75.6171   -9.2541 H       1  UNL1        0.2105
     40 H          23.5723   71.9978   -6.1260 H       1  UNL1        0.2106
     41 O          19.1966   77.3497   -5.9182 O.3     1  UNL1       -0.3794
     42 C          19.9114   76.8568   -7.0364 C.3     1  UNL1        0.1693
     43 H          18.4731   77.9199   -6.2234 H       1  UNL1        0.2105
@<TRIPOS>UNITY_ATOM_ATTR
2 1
charge -1
26 1
charge -1
@<TRIPOS>BOND
     1    25    28    1
     2    25    24    1
     3    25    26    1
     4    25    27    2
     5     1     4    1
     6     1    24    1
     7     1     2    1
     8     1     3    2
     9     6    11    1
    10     6    12    1
    11    29    36    1
    12    29    37    1
    13     7     9    1
    14     7    13    1
    15     8    10    1
    16     8    14    1
    17    28    37    1
    18     4     5    1
    19    30    33    1
    20    30    38    1
    21    31    34    1
    22    31    39    1
    23    32    35    1
    24    32    40    1
    25    41    42    1
    26    41    43    1
    27    15    19    2
    28    16    22    2
    29    17    12    1
    30    17    19   ar
    31    17    20   ar
    32    18    19   ar
    33    18    22   ar
    34    18    23    1
    35     9    10    1
    36     9    11    1
    37    10    12    1
    38    11     5    1
    39    33    34    1
    40    33    35    1
    41    34    36    1
    42    35    37    1
    43    36    42    1
    44    20    21   ar
    45    21    22   ar
@<TRIPOS>MOLECULE
*****
 43 45 0 0 0
SMALL
GASTEIGER

@<TRIPOS>ATOM
      1 P          22.8261   71.2239    0.7006 P.3     1  UNL1        0.2189
      2 O          21.6195   70.1628    0.8891 O.co2   1  UNL1       -0.4371
      3 O          24.2046   70.6362    0.7770 O.2     1  UNL1       -0.5170
      4 O          22.4958   72.3835    1.7796 O.3     1  UNL1       -0.3112
      5 C          23.2219   72.4016    2.9962 C.3     1  UNL1        0.1811
      6 O          24.5447   73.8843    4.3474 O.3     1  UNL1       -0.3308
      7 O          23.4613   76.1012    2.6437 O.3     1  UNL1       -0.3794
      8 O          25.9499   75.7105    1.5991 O.3     1  UNL1       -0.3779
      9 C          23.8125   74.7687    2.2743 C.3     1  UNL1        0.1713
     10 C          25.3185   74.6150    2.2299 C.3     1  UNL1        0.1895
     11 C          23.4326   73.8468    3.4264 C.3     1  UNL1        0.1764
     12 C          25.6681   74.5084    3.7045 C.3     1  UNL1        0.2383
     13 H          23.6943   76.7083    1.9232 H       1  UNL1        0.2105
     14 H          25.6962   75.7352    0.6633 H       1  UNL1        0.2106
     15 O          27.4433   74.8646    5.8723 O.2     1  UNL1       -0.2464
     16 O          30.1294   71.3873    4.4816 O.2     1  UNL1       -0.2670
     17 N          26.8392   73.7100    3.9335 N.ar    1  UNL1       -0.2551
     18 N          28.7792   73.1328    5.1782 N.ar    1  UNL1       -0.2743
     19 C          27.6648   73.9718    5.0516 C.ar    1  UNL1        0.3323
     20 C          27.1586   72.6805    3.0550 C.ar    1  UNL1        0.0869
     21 C          28.2257   71.8902    3.1890 C.ar    1  UNL1        0.0795
     22 C          29.1399   72.0971    4.3307 C.ar    1  UNL1        0.2626
     23 H          29.3691   73.2967    5.9495 H       1  UNL1        0.1734
     24 O          22.4728   71.9292   -0.7104 O.3     1  UNL1       -0.2703
     25 P          22.8543   71.5196   -2.2268 P.3     1  UNL1        0.2208
     26 O          21.6162   70.5823   -2.6806 O.co2   1  UNL1       -0.4371
     27 O          24.2031   70.8760   -2.3696 O.2     1  UNL1       -0.5170
     28 O          22.6688   72.8794   -3.0762 O.3     1  UNL1       -0.2858
     29 O          23.4611   72.8601   -5.3097 O.3     1  UNL1       -0.3258
     30 O          23.1422   76.9399   -4.7580 O.3     1  UNL1       -0.3794
     31 O          21.2514   75.5847   -6.4422 O.3     1  UNL1       -0.3794
     32 O          24.0763   75.2589   -2.5944 O.3     1  UNL1       -0.3775
     33 C          22.7678   75.5695   -4.5926 C.3     1  UNL1        0.1715
     34 C          22.4569   74.9874   -5.9729 C.3     1  UNL1        0.1694
     35 C          23.9215   74.8126   -3.9373 C.3     1  UNL1        0.1967
     36 C          22.3077   73.4613   -5.9097 C.3     1  UNL1        0.1761
     37 C          23.6958   73.2999   -3.9706 C.3     1  UNL1        0.2704
     38 H          22.4138   77.4263   -5.1732 H       1  UNL1        0.2105
     39 H          21.3588   76.5483   -6.4770 H       1  UNL1        0.2105
     40 H          24.2188   76.2178   -2.5869 H       1  UNL1        0.2106
     41 O          20.8166   73.0259   -7.7252 O.3     1  UNL1       -0.3794
     42 C          22.1539   72.8437   -7.2979 C.3     1  UNL1        0.1693
     43 H          20.7040   72.6380   -8.6075 H       1  UNL1        0.2105
@<TRIPOS>UNITY_ATOM_ATTR
2 1
charge -1
26 1
charge -1
@<TRIPOS>BOND
     1    25    28    1
     2    25    24    1
     3    25    26    1
     4    25    27    2
     5     1     4    1
     6     1    24    1
     7     1     2    1
     8     1     3    2
     9     6    11    1
    10     6    12    1
    11    29    36    1
    12    29    37    1
    13     7     9    1
    14     7    13    1
    15     8    10    1
    16     8    14    1
    17    28    37    1
    18     4     5    1
    19    30    33    1
    20    30    38    1
    21    31    34    1
    22    31    39    1
    23    32    35    1
    24    32    40    1
    25    41    42    1
    26    41    43    1
    27    15    19    2
    28    16    22    2
    29    17    12    1
    30    17    19   ar
    31    17    20   ar
    32    18    19   ar
    33    18    22   ar
    34    18    23    1
    35     9    10    1
    36     9    11    1
    37    10    12    1
    38    11     5    1
    39    33    34    1
    40    33    35    1
    41    34    36    1
    42    35    37    1
    43    36    42    1
    44    20    21   ar
    45    21    22   ar
@<TRIPOS>MOLECULE
*****
 43 45 0 0 0
SMALL
GASTEIGER

@<TRIPOS>ATOM
      1 P          22.9747   73.2197   -4.5517 P.3     1  UNL1        0.2189
      2 O          24.4191   72.6568   -4.0887 O.co2   1  UNL1       -0.4371
      3 O          23.0058   74.5487   -5.2474 O.2     1  UNL1       -0.5170
      4 O          22.0815   73.1526   -3.2043 O.3     1  UNL1       -0.3112
      5 C          22.7450   73.0206   -1.9592 C.3     1  UNL1        0.1811
      6 O          23.4588   71.2244   -0.5316 O.3     1  UNL1       -0.3308
      7 O          20.5529   70.5383   -0.2557 O.3     1  UNL1       -0.3794
      8 O          21.0731   71.8674    2.0680 O.3     1  UNL1       -0.3779
      9 C          21.1714   71.8196   -0.3609 C.3     1  UNL1        0.1713
     10 C          21.8627   72.1780    0.9380 C.3     1  UNL1        0.1895
     11 C          22.3463   71.6960   -1.3230 C.3     1  UNL1        0.1764
     12 C          23.1290   71.3421    0.8620 C.3     1  UNL1        0.2383
     13 H          19.7993   70.5923    0.3534 H       1  UNL1        0.2105
     14 H          20.2796   72.4253    2.0713 H       1  UNL1        0.2106
     15 O          25.0445   69.9250    2.3788 O.2     1  UNL1       -0.2464
     16 O          27.3103   73.7882    3.4663 O.2     1  UNL1       -0.2670
     17 N          24.2304   71.9524    1.5519 N.ar    1  UNL1       -0.2551
     18 N          26.1713   71.8497    2.9190 N.ar    1  UNL1       -0.2743
     19 C          25.1351   71.1509    2.2864 C.ar    1  UNL1        0.3323
     20 C          24.4050   73.3309    1.4957 C.ar    1  UNL1        0.0869
     21 C          25.3976   73.9821    2.1056 C.ar    1  UNL1        0.0795
     22 C          26.3864   73.2186    2.8939 C.ar    1  UNL1        0.2626
     23 H          26.8135   71.3121    3.4368 H       1  UNL1        0.1734
     24 O          22.3808   72.0081   -5.4419 O.3     1  UNL1       -0.2703
     25 P          21.2180   71.9866   -6.5645 P.3     1  UNL1        0.2208
     26 O          21.3235   70.4940   -7.1796 O.co2   1  UNL1       -0.4371
     27 O          21.3251   73.0849   -7.5825 O.2     1  UNL1       -0.5170
     28 O          19.8396   71.9850   -5.7249 O.3     1  UNL1       -0.2858
     29 O          18.2978   72.2109   -7.5106 O.3     1  UNL1       -0.3258
     30 O          15.6484   71.3918   -4.4511 O.3     1  UNL1       -0.3794
     31 O          16.1769   69.3913   -6.4427 O.3     1  UNL1       -0.3794
     32 O          17.9528   73.0719   -3.9546 O.3     1  UNL1       -0.3775
     33 C          16.8807   71.2900   -5.1697 C.3     1  UNL1        0.1715
     34 C          16.5765   70.7531   -6.5697 C.3     1  UNL1        0.1694
     35 C          17.5260   72.6721   -5.2524 C.3     1  UNL1        0.1967
     36 C          17.8028   70.8670   -7.4853 C.3     1  UNL1        0.1761
     37 C          18.7054   72.6874   -6.2266 C.3     1  UNL1        0.2704
     38 H          15.2338   70.5175   -4.3946 H       1  UNL1        0.2105
     39 H          15.4021   69.3332   -5.8618 H       1  UNL1        0.2105
     40 H          17.1972   73.0584   -3.3474 H       1  UNL1        0.2106
     41 O          18.3137   71.2325   -9.7906 O.3     1  UNL1       -0.3794
     42 C          17.4773   70.4844   -8.9275 C.3     1  UNL1        0.1693
     43 H          18.1179   70.9991  -10.7120 H       1  UNL1        0.2105
@<TRIPOS>UNITY_ATOM_ATTR
2 1
charge -1
26 1
charge -1
@<TRIPOS>BOND
     1    25    28    1
     2    25    24    1
     3    25    26    1
     4    25    27    2
     5     1     4    1
     6     1    24    1
     7     1     2    1
     8     1     3    2
     9     6    11    1
    10     6    12    1
    11    29    36    1
    12    29    37    1
    13     7     9    1
    14     7    13    1
    15     8    10    1
    16     8    14    1
    17    28    37    1
    18     4     5    1
    19    30    33    1
    20    30    38    1
    21    31    34    1
    22    31    39    1
    23    32    35    1
    24    32    40    1
    25    41    42    1
    26    41    43    1
    27    15    19    2
    28    16    22    2
    29    17    12    1
    30    17    19   ar
    31    17    20   ar
    32    18    19   ar
    33    18    22   ar
    34    18    23    1
    35     9    10    1
    36     9    11    1
    37    10    12    1
    38    11     5    1
    39    33    34    1
    40    33    35    1
    41    34    36    1
    42    35    37    1
    43    36    42    1
    44    20    21   ar
    45    21    22   ar
@<TRIPOS>MOLECULE
*****
 43 45 0 0 0
SMALL
GASTEIGER

@<TRIPOS>ATOM
      1 P          23.5321   72.3970   -3.4471 P.3     1  UNL1        0.2189
      2 O          24.0605   70.8893   -3.1920 O.co2   1  UNL1       -0.4371
      3 O          24.5951   73.3852   -3.8279 O.2     1  UNL1       -0.5170
      4 O          22.6949   72.7470   -2.1075 O.3     1  UNL1       -0.3112
      5 C          23.3952   72.8498   -0.8800 C.3     1  UNL1        0.1811
      6 O          24.4716   71.3138    0.6219 O.3     1  UNL1       -0.3308
      7 O          21.7329   70.2237    1.1716 O.3     1  UNL1       -0.3794
      8 O          22.1859   71.8142    3.3399 O.3     1  UNL1       -0.3779
      9 C          22.1348   71.5695    0.9215 C.3     1  UNL1        0.1713
     10 C          22.8431   72.1404    2.1323 C.3     1  UNL1        0.1895
     11 C          23.2506   71.5410   -0.1156 C.3     1  UNL1        0.1764
     12 C          24.2174   71.5018    2.0236 C.3     1  UNL1        0.2383
     13 H          21.0207   70.2164    1.8308 H       1  UNL1        0.2105
     14 H          21.3166   72.2439    3.3615 H       1  UNL1        0.2106
     15 O          26.8934   70.6779    2.3952 O.2     1  UNL1       -0.2464
     16 O          28.0976   74.7609    4.1616 O.2     1  UNL1       -0.2670
     17 N          25.2513   72.3293    2.5782 N.ar    1  UNL1       -0.2551
     18 N          27.4909   72.7116    3.2743 N.ar    1  UNL1       -0.2743
     19 C          26.5625   71.8192    2.7232 C.ar    1  UNL1        0.3323
     20 C          24.9607   73.6312    2.9713 C.ar    1  UNL1        0.0869
     21 C          25.8571   74.4691    3.4963 C.ar    1  UNL1        0.0795
     22 C          27.2503   74.0143    3.6815 C.ar    1  UNL1        0.2626
     23 H          28.4107   72.3780    3.3851 H       1  UNL1        0.1734
     24 O          22.3742   72.1935   -4.5565 O.3     1  UNL1       -0.2703
     25 P          21.8508   73.1675   -5.7356 P.3     1  UNL1        0.2208
     26 O          22.9091   72.9048   -6.9309 O.co2   1  UNL1       -0.4371
     27 O          21.7182   74.6072   -5.3312 O.2     1  UNL1       -0.5170
     28 O          20.4797   72.4878   -6.2485 O.3     1  UNL1       -0.2858
     29 O          19.5645   70.3159   -5.9993 O.3     1  UNL1       -0.3258
     30 O          18.5680   71.0029   -9.9472 O.3     1  UNL1       -0.3794
     31 O          16.5154   71.0440   -7.9389 O.3     1  UNL1       -0.3794
     32 O          21.1161   71.9161   -8.9212 O.3     1  UNL1       -0.3775
     33 C          18.7981   71.3571   -8.5809 C.3     1  UNL1        0.1715
     34 C          17.8329   70.5529   -7.7078 C.3     1  UNL1        0.1694
     35 C          20.2466   71.0346   -8.2187 C.3     1  UNL1        0.1967
     36 C          18.1961   70.6761   -6.2219 C.3     1  UNL1        0.1761
     37 C          20.4890   71.1400   -6.7120 C.3     1  UNL1        0.2704
     38 H          17.6501   71.2056  -10.1837 H       1  UNL1        0.2105
     39 H          16.2987   70.9609   -8.8809 H       1  UNL1        0.2105
     40 H          20.9531   71.8397   -9.8738 H       1  UNL1        0.2106
     41 O          16.0951   70.3835   -5.1222 O.3     1  UNL1       -0.3794
     42 C          17.3452   69.7581   -5.3471 C.3     1  UNL1        0.1693
     43 H          15.5428   69.8104   -4.5670 H       1  UNL1        0.2105
@<TRIPOS>UNITY_ATOM_ATTR
2 1
charge -1
26 1
charge -1
@<TRIPOS>BOND
     1    25    28    1
     2    25    24    1
     3    25    26    1
     4    25    27    2
     5     1     4    1
     6     1    24    1
     7     1     2    1
     8     1     3    2
     9     6    11    1
    10     6    12    1
    11    29    36    1
    12    29    37    1
    13     7     9    1
    14     7    13    1
    15     8    10    1
    16     8    14    1
    17    28    37    1
    18     4     5    1
    19    30    33    1
    20    30    38    1
    21    31    34    1
    22    31    39    1
    23    32    35    1
    24    32    40    1
    25    41    42    1
    26    41    43    1
    27    15    19    2
    28    16    22    2
    29    17    12    1
    30    17    19   ar
    31    17    20   ar
    32    18    19   ar
    33    18    22   ar
    34    18    23    1
    35     9    10    1
    36     9    11    1
    37    10    12    1
    38    11     5    1
    39    33    34    1
    40    33    35    1
    41    34    36    1
    42    35    37    1
    43    36    42    1
    44    20    21   ar
    45    21    22   ar
@<TRIPOS>MOLECULE
*****
 43 45 0 0 0
SMALL
GASTEIGER

@<TRIPOS>ATOM
      1 P          21.9192   71.2092    0.0059 P.3     1  UNL1        0.2189
      2 O          21.6276   70.0384    1.0838 O.co2   1  UNL1       -0.4371
      3 O          23.3540   71.3424   -0.4124 O.2     1  UNL1       -0.5170
      4 O          21.2569   72.5257    0.6738 O.3     1  UNL1       -0.3112
      5 C          22.0464   73.3081    1.5526 C.3     1  UNL1        0.1811
      6 O          22.8297   72.6753    3.7343 O.3     1  UNL1       -0.3308
      7 O          20.2093   73.7030    4.7678 O.3     1  UNL1       -0.3794
      8 O          21.9187   75.7482    5.3437 O.3     1  UNL1       -0.3779
      9 C          21.0157   74.1998    3.7010 C.3     1  UNL1        0.1713
     10 C          22.2349   74.9106    4.2504 C.3     1  UNL1        0.1895
     11 C          21.6381   73.0059    2.9879 C.3     1  UNL1        0.1764
     12 C          23.1273   73.7461    4.6451 C.3     1  UNL1        0.2383
     13 H          19.8009   74.4474    5.2379 H       1  UNL1        0.2105
     14 H          21.3497   76.4733    5.0416 H       1  UNL1        0.2106
     15 O          24.6241   74.9995    6.6863 O.2     1  UNL1       -0.2464
     16 O          28.4753   74.9330    4.1556 O.2     1  UNL1       -0.2670
     17 N          24.5231   74.0678    4.5466 N.ar    1  UNL1       -0.2551
     18 N          26.5405   74.9652    5.4246 N.ar    1  UNL1       -0.2743
     19 C          25.1807   74.6980    5.6286 C.ar    1  UNL1        0.3323
     20 C          25.2253   73.7584    3.3868 C.ar    1  UNL1        0.0869
     21 C          26.5215   74.0210    3.2076 C.ar    1  UNL1        0.0795
     22 C          27.2824   74.6782    4.2898 C.ar    1  UNL1        0.2626
     23 H          27.0193   75.4042    6.1648 H       1  UNL1        0.1734
     24 O          20.8976   70.8587   -1.1967 O.3     1  UNL1       -0.2703
     25 P          20.8866   71.3154   -2.7473 P.3     1  UNL1        0.2208
     26 O          22.1857   70.5725   -3.3621 O.co2   1  UNL1       -0.4371
     27 O          20.8698   72.8028   -2.9506 O.2     1  UNL1       -0.5170
     28 O          19.6285   70.5377   -3.3933 O.3     1  UNL1       -0.2858
     29 O          18.1888   72.0657   -4.4929 O.3     1  UNL1       -0.3258
     30 O          15.8581   68.6662   -4.7431 O.3     1  UNL1       -0.3794
     31 O          17.1450   69.6798   -7.1020 O.3     1  UNL1       -0.3794
     32 O          17.4017   69.1858   -2.3500 O.3     1  UNL1       -0.3775
     33 C          17.0793   69.4104   -4.7263 C.3     1  UNL1        0.1715
     34 C          17.0469   70.4112   -5.8831 C.3     1  UNL1        0.1694
     35 C          17.2020   70.1382   -3.3889 C.3     1  UNL1        0.1967
     36 C          18.1958   71.4226   -5.7728 C.3     1  UNL1        0.1761
     37 C          18.3442   71.1557   -3.4022 C.3     1  UNL1        0.2704
     38 H          15.7744   68.2012   -5.5895 H       1  UNL1        0.2105
     39 H          16.4141   69.0444   -7.1590 H       1  UNL1        0.2105
     40 H          16.6719   68.5476   -2.3519 H       1  UNL1        0.2106
     41 O          18.5529   72.0092   -8.0614 O.3     1  UNL1       -0.3794
     42 C          18.0914   72.5238   -6.8258 C.3     1  UNL1        0.1693
     43 H          18.4920   72.6990   -8.7412 H       1  UNL1        0.2105
@<TRIPOS>UNITY_ATOM_ATTR
2 1
charge -1
26 1
charge -1
@<TRIPOS>BOND
     1    25    28    1
     2    25    24    1
     3    25    26    1
     4    25    27    2
     5     1     4    1
     6     1    24    1
     7     1     2    1
     8     1     3    2
     9     6    11    1
    10     6    12    1
    11    29    36    1
    12    29    37    1
    13     7     9    1
    14     7    13    1
    15     8    10    1
    16     8    14    1
    17    28    37    1
    18     4     5    1
    19    30    33    1
    20    30    38    1
    21    31    34    1
    22    31    39    1
    23    32    35    1
    24    32    40    1
    25    41    42    1
    26    41    43    1
    27    15    19    2
    28    16    22    2
    29    17    12    1
    30    17    19   ar
    31    17    20   ar
    32    18    19   ar
    33    18    22   ar
    34    18    23    1
    35     9    10    1
    36     9    11    1
    37    10    12    1
    38    11     5    1
    39    33    34    1
    40    33    35    1
    41    34    36    1
    42    35    37    1
    43    36    42    1
    44    20    21   ar
    45    21    22   ar
@<TRIPOS>MOLECULE
*****
 43 45 0 0 0
SMALL
GASTEIGER

@<TRIPOS>ATOM
      1 P          22.2269   72.9641   -4.8415 P.3     1  UNL1        0.2189
      2 O          23.7878   72.5399   -4.8091 O.co2   1  UNL1       -0.4371
      3 O          21.9444   74.2932   -5.4779 O.2     1  UNL1       -0.5170
      4 O          21.7494   72.8057   -3.3037 O.3     1  UNL1       -0.3112
      5 C          21.1511   71.5851   -2.9039 C.3     1  UNL1        0.1811
      6 O          22.7410   72.1286   -1.1862 O.3     1  UNL1       -0.3308
      7 O          21.1925   70.2622    0.5771 O.3     1  UNL1       -0.3794
      8 O          20.3051   72.7124    1.3806 O.3     1  UNL1       -0.3779
      9 C          20.7183   71.1489   -0.4349 C.3     1  UNL1        0.1713
     10 C          20.7726   72.5814    0.0535 C.3     1  UNL1        0.1895
     11 C          21.7394   71.1595   -1.5656 C.3     1  UNL1        0.1764
     12 C          22.2512   72.9040   -0.0800 C.3     1  UNL1        0.2383
     13 H          20.5565   70.2385    1.3099 H       1  UNL1        0.2105
     14 H          19.3601   72.4967    1.4134 H       1  UNL1        0.2106
     15 O          21.8155   74.9800    1.7850 O.2     1  UNL1       -0.2464
     16 O          23.1870   78.2050   -1.2083 O.2     1  UNL1       -0.2670
     17 N          22.4865   74.2952   -0.3452 N.ar    1  UNL1       -0.2551
     18 N          22.4989   76.5841    0.2932 N.ar    1  UNL1       -0.2743
     19 C          22.2347   75.2582    0.6596 C.ar    1  UNL1        0.3323
     20 C          22.9620   74.6926   -1.5902 C.ar    1  UNL1        0.0869
     21 C          23.2076   75.9612   -1.9242 C.ar    1  UNL1        0.0795
     22 C          22.9709   77.0291   -0.9316 C.ar    1  UNL1        0.2626
     23 H          22.3305   77.2723    0.9771 H       1  UNL1        0.1734
     24 O          21.5233   71.7054   -5.5719 O.3     1  UNL1       -0.2703
     25 P          20.9593   71.5305   -7.0767 P.3     1  UNL1        0.2208
     26 O          21.1478   69.9493   -7.3622 O.co2   1  UNL1       -0.4371
     27 O          21.6162   72.4250   -8.0878 O.2     1  UNL1       -0.5170
     28 O          19.3638   71.7329   -6.9410 O.3     1  UNL1       -0.2858
     29 O          17.8407   70.1275   -6.0929 O.3     1  UNL1       -0.3258
     30 O          15.3286   72.1037   -8.7073 O.3     1  UNL1       -0.3794
     31 O          15.0078   72.4765   -5.8778 O.3     1  UNL1       -0.3794
     32 O          18.0887   71.6276   -9.4386 O.3     1  UNL1       -0.3775
     33 C          16.3964   71.9879   -7.7630 C.3     1  UNL1        0.1715
     34 C          15.8197   71.4548   -6.4500 C.3     1  UNL1        0.1694
     35 C          17.4499   71.0297   -8.3158 C.3     1  UNL1        0.1967
     36 C          16.9364   71.0523   -5.4774 C.3     1  UNL1        0.1761
     37 C          18.4854   70.6551   -7.2539 C.3     1  UNL1        0.2704
     38 H          14.6565   72.7111   -8.3627 H       1  UNL1        0.2105
     39 H          14.3070   72.7219   -6.5022 H       1  UNL1        0.2105
     40 H          17.4227   71.8598  -10.1037 H       1  UNL1        0.2106
     41 O          15.8578   69.1120   -4.5938 O.3     1  UNL1       -0.3794
     42 C          16.3868   70.3724   -4.2253 C.3     1  UNL1        0.1693
     43 H          15.5046   68.6677   -3.8067 H       1  UNL1        0.2105
@<TRIPOS>UNITY_ATOM_ATTR
2 1
charge -1
26 1
charge -1
@<TRIPOS>BOND
     1    25    28    1
     2    25    24    1
     3    25    26    1
     4    25    27    2
     5     1     4    1
     6     1    24    1
     7     1     2    1
     8     1     3    2
     9     6    11    1
    10     6    12    1
    11    29    36    1
    12    29    37    1
    13     7     9    1
    14     7    13    1
    15     8    10    1
    16     8    14    1
    17    28    37    1
    18     4     5    1
    19    30    33    1
    20    30    38    1
    21    31    34    1
    22    31    39    1
    23    32    35    1
    24    32    40    1
    25    41    42    1
    26    41    43    1
    27    15    19    2
    28    16    22    2
    29    17    12    1
    30    17    19   ar
    31    17    20   ar
    32    18    19   ar
    33    18    22   ar
    34    18    23    1
    35     9    10    1
    36     9    11    1
    37    10    12    1
    38    11     5    1
    39    33    34    1
    40    33    35    1
    41    34    36    1
    42    35    37    1
    43    36    42    1
    44    20    21   ar
    45    21    22   ar
@<TRIPOS>MOLECULE
*****
 43 45 0 0 0
SMALL
GASTEIGER

@<TRIPOS>ATOM
      1 P          21.8474   72.5138   -5.6173 P.3     1  UNL1        0.2189
      2 O          21.0989   73.9078   -5.2800 O.co2   1  UNL1       -0.4371
      3 O          23.1062   72.6490   -6.4226 O.2     1  UNL1       -0.5170
      4 O          20.6867   71.5991   -6.2761 O.3     1  UNL1       -0.3112
      5 C          20.1568   71.9813   -7.5335 C.3     1  UNL1        0.1811
      6 O          18.9363   69.9503   -7.1340 O.3     1  UNL1       -0.3308
      7 O          18.1528   70.0730  -10.0257 O.3     1  UNL1       -0.3794
      8 O          15.9264   71.0180   -8.7660 O.3     1  UNL1       -0.3779
      9 C          18.3325   71.1381   -9.0937 C.3     1  UNL1        0.1713
     10 C          17.1724   71.1874   -8.1214 C.3     1  UNL1        0.1895
     11 C          19.4967   70.7719   -8.1815 C.3     1  UNL1        0.1764
     12 C          17.5031   70.0433   -7.1781 C.3     1  UNL1        0.2383
     13 H          17.4146   70.2842  -10.6194 H       1  UNL1        0.2105
     14 H          15.7617   71.7709   -9.3548 H       1  UNL1        0.2106
     15 O          16.2206   68.0847   -5.5978 O.2     1  UNL1       -0.2464
     16 O          15.6488   71.0234   -2.0938 O.2     1  UNL1       -0.2670
     17 N          17.0093   70.2692   -5.8490 N.ar    1  UNL1       -0.2551
     18 N          15.9371   69.5495   -3.8543 N.ar    1  UNL1       -0.2743
     19 C          16.3798   69.2187   -5.1414 C.ar    1  UNL1        0.3323
     20 C          17.1517   71.5210   -5.2603 C.ar    1  UNL1        0.0869
     21 C          16.7229   71.8206   -4.0324 C.ar    1  UNL1        0.0795
     22 C          16.0543   70.7792   -3.2259 C.ar    1  UNL1        0.2626
     23 H          15.4952   68.8335   -3.3427 H       1  UNL1        0.1734
     24 O          22.0504   71.8480   -4.1583 O.3     1  UNL1       -0.2703
     25 P          23.2695   71.9563   -3.1024 P.3     1  UNL1        0.2208
     26 O          23.9434   73.3833   -3.4587 O.co2   1  UNL1       -0.4371
     27 O          24.2209   70.7956   -3.1398 O.2     1  UNL1       -0.5170
     28 O          22.5537   72.1887   -1.6745 O.3     1  UNL1       -0.2858
     29 O          23.4960   70.7540   -0.0405 O.3     1  UNL1       -0.3258
     30 O          20.3637   72.2972    2.1637 O.3     1  UNL1       -0.3794
     31 O          23.0509   73.1276    2.7446 O.3     1  UNL1       -0.3794
     32 O          19.9929   71.6880   -0.6418 O.3     1  UNL1       -0.3775
     33 C          21.4145   72.3286    1.1940 C.3     1  UNL1        0.1715
     34 C          22.7333   72.0205    1.9058 C.3     1  UNL1        0.1694
     35 C          21.1293   71.2854    0.1151 C.3     1  UNL1        0.1967
     36 C          23.8628   71.7732    0.8967 C.3     1  UNL1        0.1761
     37 C          22.3340   71.0809   -0.8052 C.3     1  UNL1        0.2704
     38 H          20.5384   72.9576    2.8514 H       1  UNL1        0.2105
     39 H          22.3295   73.2733    3.3767 H       1  UNL1        0.2105
     40 H          19.2370   71.8139   -0.0479 H       1  UNL1        0.2106
     41 O          24.8960   70.0734    2.2203 O.3     1  UNL1       -0.3794
     42 C          25.1481   71.3101    1.5791 C.3     1  UNL1        0.1693
     43 H          25.7054   69.7663    2.6588 H       1  UNL1        0.2105
@<TRIPOS>UNITY_ATOM_ATTR
2 1
charge -1
26 1
charge -1
@<TRIPOS>BOND
     1    25    28    1
     2    25    24    1
     3    25    26    1
     4    25    27    2
     5     1     4    1
     6     1    24    1
     7     1     2    1
     8     1     3    2
     9     6    11    1
    10     6    12    1
    11    29    36    1
    12    29    37    1
    13     7     9    1
    14     7    13    1
    15     8    10    1
    16     8    14    1
    17    28    37    1
    18     4     5    1
    19    30    33    1
    20    30    38    1
    21    31    34    1
    22    31    39    1
    23    32    35    1
    24    32    40    1
    25    41    42    1
    26    41    43    1
    27    15    19    2
    28    16    22    2
    29    17    12    1
    30    17    19   ar
    31    17    20   ar
    32    18    19   ar
    33    18    22   ar
    34    18    23    1
    35     9    10    1
    36     9    11    1
    37    10    12    1
    38    11     5    1
    39    33    34    1
    40    33    35    1
    41    34    36    1
    42    35    37    1
    43    36    42    1
    44    20    21   ar
    45    21    22   ar
@<TRIPOS>MOLECULE
*****
 43 45 0 0 0
SMALL
GASTEIGER

@<TRIPOS>ATOM
      1 P          23.0624   72.1397   -2.9167 P.3     1  UNL1        0.2189
      2 O          24.0989   70.9074   -3.0735 O.co2   1  UNL1       -0.4371
      3 O          23.7001   73.4923   -2.7925 O.2     1  UNL1       -0.5170
      4 O          22.1133   71.6946   -1.6842 O.3     1  UNL1       -0.3112
      5 C          22.6747   70.9065   -0.6490 C.3     1  UNL1        0.1811
      6 O          22.8069   70.8907    1.7501 O.3     1  UNL1       -0.3308
      7 O          20.4065   72.6870    1.7075 O.3     1  UNL1       -0.3794
      8 O          22.4508   74.4371    2.1487 O.3     1  UNL1       -0.3779
      9 C          21.5130   72.6384    0.8083 C.3     1  UNL1        0.1713
     10 C          22.7427   73.2413    1.4548 C.3     1  UNL1        0.1895
     11 C          21.9218   71.1797    0.6458 C.3     1  UNL1        0.1764
     12 C          23.1924   72.1233    2.3800 C.3     1  UNL1        0.2383
     13 H          20.1273   73.6089    1.8268 H       1  UNL1        0.2105
     14 H          22.1695   75.1172    1.5170 H       1  UNL1        0.2106
     15 O          24.8521   69.8706    1.9943 O.2     1  UNL1       -0.2464
     16 O          28.6315   72.2216    3.1900 O.2     1  UNL1       -0.2670
     17 N          24.6138   72.1187    2.5829 N.ar    1  UNL1       -0.2551
     18 N          26.7326   71.0431    2.5898 N.ar    1  UNL1       -0.2743
     19 C          25.3548   70.9343    2.3622 C.ar    1  UNL1        0.3323
     20 C          25.2587   73.2795    2.9957 C.ar    1  UNL1        0.0869
     21 C          26.5732   73.3664    3.2095 C.ar    1  UNL1        0.0795
     22 C          27.4198   72.1739    3.0018 C.ar    1  UNL1        0.2626
     23 H          27.2691   70.2305    2.4428 H       1  UNL1        0.1734
     24 O          22.0956   71.9671   -4.2006 O.3     1  UNL1       -0.2703
     25 P          21.8478   72.9245   -5.4792 P.3     1  UNL1        0.2208
     26 O          23.0280   72.4947   -6.4989 O.co2   1  UNL1       -0.4371
     27 O          21.8139   74.3897   -5.1535 O.2     1  UNL1       -0.5170
     28 O          20.4969   72.3587   -6.1575 O.3     1  UNL1       -0.2858
     29 O          19.5203   70.2051   -6.0006 O.3     1  UNL1       -0.3258
     30 O          18.5508   71.0853   -9.9167 O.3     1  UNL1       -0.3794
     31 O          16.4966   71.1000   -7.9098 O.3     1  UNL1       -0.3794
     32 O          21.1218   71.8821   -8.8515 O.3     1  UNL1       -0.3775
     33 C          18.7883   71.3752   -8.5365 C.3     1  UNL1        0.1715
     34 C          17.7992   70.5625   -7.6987 C.3     1  UNL1        0.1694
     35 C          20.2265   70.9969   -8.1873 C.3     1  UNL1        0.1967
     36 C          18.1630   70.6129   -6.2087 C.3     1  UNL1        0.1761
     37 C          20.4690   71.0319   -6.6773 C.3     1  UNL1        0.2704
     38 H          17.6395   71.3237  -10.1450 H       1  UNL1        0.2105
     39 H          16.2793   71.0627   -8.8545 H       1  UNL1        0.2105
     40 H          20.9584   71.8506   -9.8066 H       1  UNL1        0.2106
     41 O          16.0056   70.2744   -5.2392 O.3     1  UNL1       -0.3794
     42 C          17.2850   69.6833   -5.3738 C.3     1  UNL1        0.1693
     43 H          15.4358   69.6936   -4.7103 H       1  UNL1        0.2105
@<TRIPOS>UNITY_ATOM_ATTR
2 1
charge -1
26 1
charge -1
@<TRIPOS>BOND
     1    25    28    1
     2    25    24    1
     3    25    26    1
     4    25    27    2
     5     1     4    1
     6     1    24    1
     7     1     2    1
     8     1     3    2
     9     6    11    1
    10     6    12    1
    11    29    36    1
    12    29    37    1
    13     7     9    1
    14     7    13    1
    15     8    10    1
    16     8    14    1
    17    28    37    1
    18     4     5    1
    19    30    33    1
    20    30    38    1
    21    31    34    1
    22    31    39    1
    23    32    35    1
    24    32    40    1
    25    41    42    1
    26    41    43    1
    27    15    19    2
    28    16    22    2
    29    17    12    1
    30    17    19   ar
    31    17    20   ar
    32    18    19   ar
    33    18    22   ar
    34    18    23    1
    35     9    10    1
    36     9    11    1
    37    10    12    1
    38    11     5    1
    39    33    34    1
    40    33    35    1
    41    34    36    1
    42    35    37    1
    43    36    42    1
    44    20    21   ar
    45    21    22   ar
@<TRIPOS>MOLECULE
*****
 43 45 0 0 0
SMALL
GASTEIGER

@<TRIPOS>ATOM
      1 P          21.6546   72.6154   -5.5969 P.3     1  UNL1        0.2189
      2 O          21.0208   74.0937   -5.7715 O.co2   1  UNL1       -0.4371
      3 O          23.0724   72.4742   -6.0676 O.2     1  UNL1       -0.5170
      4 O          20.5767   71.6436   -6.3122 O.3     1  UNL1       -0.3112
      5 C          20.1097   71.9875   -7.6050 C.3     1  UNL1        0.1811
      6 O          18.9010   69.9557   -7.1755 O.3     1  UNL1       -0.3308
      7 O          18.1025   70.0405  -10.0644 O.3     1  UNL1       -0.3794
      8 O          15.8779   70.9898   -8.8048 O.3     1  UNL1       -0.3779
      9 C          18.2818   71.1173   -9.1460 C.3     1  UNL1        0.1713
     10 C          17.1263   71.1727   -8.1686 C.3     1  UNL1        0.1895
     11 C          19.4522   70.7675   -8.2354 C.3     1  UNL1        0.1764
     12 C          17.4671   70.0415   -7.2135 C.3     1  UNL1        0.2383
     13 H          17.3604   70.2412  -10.6568 H       1  UNL1        0.2105
     14 H          15.7067   71.7350   -9.4016 H       1  UNL1        0.2106
     15 O          16.2996   68.0690   -5.5629 O.2     1  UNL1       -0.2464
     16 O          15.6284   71.0744   -2.1339 O.2     1  UNL1       -0.2670
     17 N          16.9789   70.2808   -5.8846 N.ar    1  UNL1       -0.2551
     18 N          15.9665   69.5670   -3.8568 N.ar    1  UNL1       -0.2743
     19 C          16.4092   69.2217   -5.1401 C.ar    1  UNL1        0.3323
     20 C          17.0677   71.5541   -5.3326 C.ar    1  UNL1        0.0869
     21 C          16.6396   71.8672   -4.1079 C.ar    1  UNL1        0.0795
     22 C          16.0316   70.8181   -3.2642 C.ar    1  UNL1        0.2626
     23 H          15.5657   68.8453   -3.3199 H       1  UNL1        0.1734
     24 O          21.4338   72.3085   -4.0253 O.3     1  UNL1       -0.2703
     25 P          21.7458   70.9874   -3.1476 P.3     1  UNL1        0.2208
     26 O          23.3624   70.9503   -3.0948 O.co2   1  UNL1       -0.4371
     27 O          21.1145   69.7329   -3.6783 O.2     1  UNL1       -0.5170
     28 O          21.2978   71.3786   -1.6472 O.3     1  UNL1       -0.2858
     29 O          22.6725   73.1162   -0.8061 O.3     1  UNL1       -0.3258
     30 O          20.5730   72.2128    2.6329 O.3     1  UNL1       -0.3794
     31 O          20.0115   74.6544    1.2290 O.3     1  UNL1       -0.3794
     32 O          21.3961   70.0908    0.8442 O.3     1  UNL1       -0.3775
     33 C          20.7562   72.3815    1.2246 C.3     1  UNL1        0.1715
     34 C          21.1479   73.8371    0.9629 C.3     1  UNL1        0.1694
     35 C          21.8557   71.4346    0.7472 C.3     1  UNL1        0.1967
     36 C          21.6194   74.0323   -0.4844 C.3     1  UNL1        0.1761
     37 C          22.2855   71.7458   -0.6876 C.3     1  UNL1        0.2704
     38 H          19.8757   72.8108    2.9423 H       1  UNL1        0.2105
     39 H          19.7235   74.5214    2.1458 H       1  UNL1        0.2105
     40 H          21.1274   69.9062    1.7572 H       1  UNL1        0.2106
     41 O          22.3866   75.6042   -2.1121 O.3     1  UNL1       -0.3794
     42 C          22.1633   75.4390   -0.7239 C.3     1  UNL1        0.1693
     43 H          22.7326   76.4952   -2.2796 H       1  UNL1        0.2105
@<TRIPOS>UNITY_ATOM_ATTR
2 1
charge -1
26 1
charge -1
@<TRIPOS>BOND
     1    25    28    1
     2    25    24    1
     3    25    26    1
     4    25    27    2
     5     1     4    1
     6     1    24    1
     7     1     2    1
     8     1     3    2
     9     6    11    1
    10     6    12    1
    11    29    36    1
    12    29    37    1
    13     7     9    1
    14     7    13    1
    15     8    10    1
    16     8    14    1
    17    28    37    1
    18     4     5    1
    19    30    33    1
    20    30    38    1
    21    31    34    1
    22    31    39    1
    23    32    35    1
    24    32    40    1
    25    41    42    1
    26    41    43    1
    27    15    19    2
    28    16    22    2
    29    17    12    1
    30    17    19   ar
    31    17    20   ar
    32    18    19   ar
    33    18    22   ar
    34    18    23    1
    35     9    10    1
    36     9    11    1
    37    10    12    1
    38    11     5    1
    39    33    34    1
    40    33    35    1
    41    34    36    1
    42    35    37    1
    43    36    42    1
    44    20    21   ar
    45    21    22   ar
@<TRIPOS>MOLECULE
*****
 43 45 0 0 0
SMALL
GASTEIGER

@<TRIPOS>ATOM
      1 P          20.6697   73.4057   -3.5682 P.3     1  UNL1        0.2189
      2 O          19.7284   74.6017   -3.0197 O.co2   1  UNL1       -0.4371
      3 O          20.7649   73.3086   -5.0625 O.2     1  UNL1       -0.5170
      4 O          20.1060   72.0904   -2.8131 O.3     1  UNL1       -0.3112
      5 C          19.5102   71.0672   -3.5914 C.3     1  UNL1        0.1811
      6 O          17.7135   71.8345   -4.9904 O.3     1  UNL1       -0.3308
      7 O          15.8769   70.4265   -3.0837 O.3     1  UNL1       -0.3794
      8 O          16.0271   68.6742   -5.1679 O.3     1  UNL1       -0.3779
      9 C          17.1795   70.0490   -3.5267 C.3     1  UNL1        0.1713
     10 C          17.1231   69.5396   -4.9518 C.3     1  UNL1        0.1895
     11 C          18.0106   71.3173   -3.6749 C.3     1  UNL1        0.1764
     12 C          17.0131   70.8313   -5.7440 C.3     1  UNL1        0.2383
     13 H          15.3277   69.6328   -2.9815 H       1  UNL1        0.2105
     14 H          16.1436   67.8673   -4.6425 H       1  UNL1        0.2106
     15 O          15.5524   70.6083   -8.1511 O.2     1  UNL1       -0.2464
     16 O          19.3993   70.4363  -10.6835 O.2     1  UNL1       -0.2670
     17 N          17.6075   70.7271   -7.0468 N.ar    1  UNL1       -0.2551
     18 N          17.4691   70.5230   -9.4101 N.ar    1  UNL1       -0.2743
     19 C          16.7844   70.6185   -8.1919 C.ar    1  UNL1        0.3323
     20 C          18.9918   70.7336   -7.1794 C.ar    1  UNL1        0.0869
     21 C          19.6291   70.6404   -8.3483 C.ar    1  UNL1        0.0795
     22 C          18.8428   70.5237   -9.5934 C.ar    1  UNL1        0.2626
     23 H          16.9163   70.4461  -10.2215 H       1  UNL1        0.1734
     24 O          22.0768   73.6787   -2.8208 O.3     1  UNL1       -0.2703
     25 P          22.6560   73.1298   -1.4150 P.3     1  UNL1        0.2208
     26 O          24.0542   73.9276   -1.2530 O.co2   1  UNL1       -0.4371
     27 O          22.7837   71.6357   -1.3434 O.2     1  UNL1       -0.5170
     28 O          21.6877   73.7728   -0.2952 O.3     1  UNL1       -0.2858
     29 O          21.6109   72.7758    1.8534 O.3     1  UNL1       -0.3258
     30 O          18.0517   74.8662    1.9685 O.3     1  UNL1       -0.3794
     31 O          20.2808   75.7743    3.5352 O.3     1  UNL1       -0.3794
     32 O          18.8943   73.5836   -0.4860 O.3     1  UNL1       -0.3775
     33 C          19.4187   74.6393    1.6144 C.3     1  UNL1        0.1715
     34 C          20.2308   74.4982    2.9033 C.3     1  UNL1        0.1694
     35 C          19.5127   73.3650    0.7774 C.3     1  UNL1        0.1967
     36 C          21.6494   73.9905    2.6115 C.3     1  UNL1        0.1761
     37 C          20.9638   72.9196    0.5876 C.3     1  UNL1        0.2704
     38 H          17.9850   75.6742    2.4997 H       1  UNL1        0.2105
     39 H          19.3787   76.0836    3.7136 H       1  UNL1        0.2105
     40 H          17.9762   73.8647   -0.3522 H       1  UNL1        0.2106
     41 O          22.1094   72.3781    4.3136 O.3     1  UNL1       -0.3794
     42 C          22.4250   73.6925    3.8927 C.3     1  UNL1        0.1693
     43 H          22.5962   72.1744    5.1280 H       1  UNL1        0.2105
@<TRIPOS>UNITY_ATOM_ATTR
2 1
charge -1
26 1
charge -1
@<TRIPOS>BOND
     1    25    28    1
     2    25    24    1
     3    25    26    1
     4    25    27    2
     5     1     4    1
     6     1    24    1
     7     1     2    1
     8     1     3    2
     9     6    11    1
    10     6    12    1
    11    29    36    1
    12    29    37    1
    13     7     9    1
    14     7    13    1
    15     8    10    1
    16     8    14    1
    17    28    37    1
    18     4     5    1
    19    30    33    1
    20    30    38    1
    21    31    34    1
    22    31    39    1
    23    32    35    1
    24    32    40    1
    25    41    42    1
    26    41    43    1
    27    15    19    2
    28    16    22    2
    29    17    12    1
    30    17    19   ar
    31    17    20   ar
    32    18    19   ar
    33    18    22   ar
    34    18    23    1
    35     9    10    1
    36     9    11    1
    37    10    12    1
    38    11     5    1
    39    33    34    1
    40    33    35    1
    41    34    36    1
    42    35    37    1
    43    36    42    1
    44    20    21   ar
    45    21    22   ar
