@<TRIPOS>MOLECULE
UD2
 46 48 0 0 0
SMALL
GASTEIGER

@<TRIPOS>ATOM
      1 P          22.0290   70.7879   -2.7338 P.3     1  UNL1        0.2189
      2 O          21.3836   69.3192   -2.6007 O.3     1  UNL1       -0.4371
      3 O          23.3060   70.7008   -3.4759 O.2     1  UNL1       -0.5170
      4 O          21.0114   71.7511   -3.5278 O.3     1  UNL1       -0.3112
      5 C          20.0124   72.5349   -2.8728 C.3     1  UNL1        0.1811
      6 C          17.8415   71.3807   -5.4981 C.3     1  UNL1        0.2383
      7 C          17.9947   70.1608   -4.5545 C.3     1  UNL1        0.1895
      8 O          16.8161   69.3530   -4.5698 O.3     1  UNL1       -0.3779
      9 C          18.1823   70.8381   -3.1749 C.3     1  UNL1        0.1713
     10 C          18.6501   72.2657   -3.5168 C.3     1  UNL1        0.1764
     11 O          18.7604   72.3488   -4.9466 O.3     1  UNL1       -0.3308
     12 O          16.9435   70.8740   -2.4642 O.3     1  UNL1       -0.3794
     13 H          16.8635   68.5768   -3.9953 H       1  UNL1        0.2106
     14 H          16.5728   70.0017   -2.2742 H       1  UNL1        0.2105
     15 N          18.2250   71.0259   -6.8663 N.ar    1  UNL1       -0.2551
     16 C          17.2792   70.6616   -7.7503 C.ar    1  UNL1        0.3323
     17 N          17.6029   70.3302   -9.0142 N.ar    1  UNL1       -0.2743
     18 C          18.8901   70.3609   -9.4154 C.ar    1  UNL1        0.2626
     19 C          19.8959   70.7435   -8.4956 C.ar    1  UNL1        0.0795
     20 C          19.5422   71.0747   -7.2360 C.ar    1  UNL1        0.0869
     21 O          16.1145   70.6297   -7.4025 O.2     1  UNL1       -0.2464
     22 O          19.1844   70.0616  -10.5592 O.2     1  UNL1       -0.2670
     23 H          16.9086   70.0687   -9.6385 H       1  UNL1        0.1734
     24 O          22.3013   71.3899   -1.2652 O.3     1  UNL1       -0.2703
     25 P          22.5854   70.7329    0.1772 P.3     1  UNL1        0.2208
     26 O          21.3815   69.7330    0.5575 O.3     1  UNL1       -0.4371
     27 O          23.8573   69.9787    0.1341 O.2     1  UNL1       -0.5170
     28 O          22.6880   71.8961    1.2858 O.3     1  UNL1       -0.2865
     29 C          21.5654   72.6755    1.7026 C.3     1  UNL1        0.2611
     30 C          21.7779   74.1359    1.2965 C.3     1  UNL1        0.1582
     31 C          23.0156   74.6817    2.0153 C.3     1  UNL1        0.1625
     32 C          22.8278   74.5208    3.5263 C.3     1  UNL1        0.1686
     33 C          22.5748   73.0451    3.8464 C.3     1  UNL1        0.1760
     34 O          23.1793   76.0661    1.6991 O.3     1  UNL1       -0.3801
     35 O          21.7103   75.3013    3.9545 O.3     1  UNL1       -0.3794
     36 O          21.4290   72.5920    3.1227 O.3     1  UNL1       -0.3263
     37 H          23.9464   76.4773    2.1206 H       1  UNL1        0.2105
     38 H          21.5318   75.2462    4.9037 H       1  UNL1        0.2105
     39 C          23.2241   74.3083   -0.6571 C.2     1  UNL1        0.2231
     40 C          23.4304   74.3912   -2.1468 C.3     1  UNL1        0.0946
     41 N          21.9778   74.2167   -0.1526 N.am    1  UNL1       -0.2994
     42 O          24.1802   74.3239    0.0897 O.2     1  UNL1       -0.2751
     43 H          21.2130   74.2052   -0.7492 H       1  UNL1        0.1496
     44 C          22.3267   72.8844    5.3474 C.3     1  UNL1        0.1693
     45 O          20.9381   73.0771    5.6248 O.3     1  UNL1       -0.3794
     46 H          20.7074   72.9897    6.5598 H       1  UNL1        0.2105
@<TRIPOS>BOND
     1    29    30    1
     2    30    41    1
     3    30    31    1
     4    31    34    1
     5    31    32    1
     6    32    35    1
     7    32    33    1
     8    33    36    1
     9    33    44    1
    10    39    40    1
    11    39    42    2
    12    39    41   am
    13    41    43    1
    14    29    28    1
    15    34    37    1
    16    35    38    1
    17    29    36    1
    18    44    45    1
    19    45    46    1
    20    15     6    1
    21    15    16   ar
    22    16    21    2
    23    16    17   ar
    24    17    23    1
    25    17    18   ar
    26    18    19   ar
    27    19    20   ar
    28    15    20   ar
    29    18    22    2
    30     6     7    1
    31     6    11    1
    32     7     9    1
    33     7     8    1
    34     8    13    1
    35     9    10    1
    36     9    12    1
    37    10     5    1
    38    10    11    1
    39    12    14    1
    40     5     4    1
    41     4     1    1
    42     1     2    1
    43     1    24    1
    44     1     3    2
    45    24    25    1
    46    28    25    1
    47    25    26    1
    48    25    27    2
@<TRIPOS>MOLECULE
UD2
 46 48 0 0 0
SMALL
GASTEIGER

@<TRIPOS>ATOM
      1 P          22.8984   72.0370   -3.3487 P.3     1  UNL1        0.2189
      2 O          23.4464   70.5246   -3.2868 O.3     1  UNL1       -0.4371
      3 O          23.6071   72.7758   -4.4168 O.2     1  UNL1       -0.5170
      4 O          21.3190   72.0229   -3.6629 O.3     1  UNL1       -0.3112
      5 C          20.3227   72.0431   -2.6389 C.3     1  UNL1        0.1811
      6 C          18.0144   71.3323   -5.3041 C.3     1  UNL1        0.2383
      7 C          18.0381   70.0370   -4.4533 C.3     1  UNL1        0.1895
      8 O          16.7765   69.3683   -4.5071 O.3     1  UNL1       -0.3779
      9 C          18.3118   70.5866   -3.0318 C.3     1  UNL1        0.1713
     10 C          18.9335   71.9746   -3.2780 C.3     1  UNL1        0.1764
     11 O          19.0404   72.1494   -4.6998 O.3     1  UNL1       -0.3308
     12 O          17.0909   70.7076   -2.3001 O.3     1  UNL1       -0.3794
     13 H          16.7416   68.5517   -3.9907 H       1  UNL1        0.2106
     14 H          16.6265   69.8702   -2.1671 H       1  UNL1        0.2105
     15 N          18.3444   71.0383   -6.7004 N.ar    1  UNL1       -0.2551
     16 C          17.3581   70.7857   -7.5793 C.ar    1  UNL1        0.3323
     17 N          17.6323   70.5123   -8.8686 N.ar    1  UNL1       -0.2743
     18 C          18.9094   70.4894   -9.3008 C.ar    1  UNL1        0.2626
     19 C          19.9575   70.7545   -8.3868 C.ar    1  UNL1        0.0795
     20 C          19.6534   71.0298   -7.1010 C.ar    1  UNL1        0.0869
     21 O          16.2019   70.8031   -7.2036 O.2     1  UNL1       -0.2464
     22 O          19.1589   70.2425  -10.4676 O.2     1  UNL1       -0.2670
     23 H          16.9092   70.3313   -9.4887 H       1  UNL1        0.1734
     24 O          23.1569   72.7601   -1.9332 O.3     1  UNL1       -0.2703
     25 P          23.2289   74.2976   -1.4600 P.3     1  UNL1        0.2208
     26 O          24.6949   74.8866   -1.7722 O.3     1  UNL1       -0.4371
     27 O          22.2145   75.0873   -2.1919 O.2     1  UNL1       -0.5170
     28 O          22.9400   74.3863    0.1216 O.3     1  UNL1       -0.2865
     29 C          21.6803   74.0457    0.7031 C.3     1  UNL1        0.2611
     30 C          21.7015   74.3748    2.1978 C.3     1  UNL1        0.1582
     31 C          22.7755   73.5247    2.8837 C.3     1  UNL1        0.1625
     32 C          22.4858   72.0447    2.6193 C.3     1  UNL1        0.1686
     33 C          22.4343   71.8054    1.1080 C.3     1  UNL1        0.1760
     34 O          22.7525   73.7718    4.2914 O.3     1  UNL1       -0.3801
     35 O          21.2299   71.6922    3.2022 O.3     1  UNL1       -0.3794
     36 O          21.4372   72.6484    0.5275 O.3     1  UNL1       -0.3263
     37 H          23.4090   73.2660    4.7898 H       1  UNL1        0.2105
     38 H          20.9813   70.7663    3.0725 H       1  UNL1        0.2105
     39 C          21.1179   76.6061    2.9841 C.2     1  UNL1        0.2231
     40 C          21.4342   78.0664    3.1738 C.3     1  UNL1        0.0946
     41 N          22.0099   75.7952    2.3817 N.am    1  UNL1       -0.2994
     42 O          20.0593   76.1590    3.3735 O.2     1  UNL1       -0.2751
     43 H          22.8559   76.1524    2.0693 H       1  UNL1        0.1496
     44 C          22.0862   70.3409    0.8353 C.3     1  UNL1        0.1693
     45 O          23.2159   69.6810    0.2602 O.3     1  UNL1       -0.3794
     46 H          23.0669   68.7467    0.0605 H       1  UNL1        0.2105
@<TRIPOS>BOND
     1    29    30    1
     2    30    41    1
     3    30    31    1
     4    31    34    1
     5    31    32    1
     6    32    35    1
     7    32    33    1
     8    33    36    1
     9    33    44    1
    10    39    40    1
    11    39    42    2
    12    39    41   am
    13    41    43    1
    14    29    28    1
    15    34    37    1
    16    35    38    1
    17    29    36    1
    18    44    45    1
    19    45    46    1
    20    15     6    1
    21    15    16   ar
    22    16    21    2
    23    16    17   ar
    24    17    23    1
    25    17    18   ar
    26    18    19   ar
    27    19    20   ar
    28    15    20   ar
    29    18    22    2
    30     6     7    1
    31     6    11    1
    32     7     9    1
    33     7     8    1
    34     8    13    1
    35     9    10    1
    36     9    12    1
    37    10     5    1
    38    10    11    1
    39    12    14    1
    40     5     4    1
    41     4     1    1
    42     1     2    1
    43     1    24    1
    44     1     3    2
    45    24    25    1
    46    28    25    1
    47    25    26    1
    48    25    27    2
@<TRIPOS>MOLECULE
UD2
 46 48 0 0 0
SMALL
GASTEIGER

@<TRIPOS>ATOM
      1 P          22.0834   73.9783   -6.3721 P.3     1  UNL1        0.2189
      2 O          22.7224   72.6863   -7.0890 O.3     1  UNL1       -0.4371
      3 O          22.9476   75.1547   -6.6129 O.2     1  UNL1       -0.5170
      4 O          20.6169   74.2569   -6.9765 O.3     1  UNL1       -0.3112
      5 C          20.3041   74.0982   -8.3615 C.3     1  UNL1        0.1811
      6 C          18.1396   71.4818   -7.1759 C.3     1  UNL1        0.2383
      7 C          17.2827   72.7697   -7.0804 C.3     1  UNL1        0.1895
      8 O          15.8980   72.4767   -7.2768 O.3     1  UNL1       -0.3779
      9 C          17.8391   73.6180   -8.2501 C.3     1  UNL1        0.1713
     10 C          19.2318   73.0177   -8.5214 C.3     1  UNL1        0.1764
     11 O          19.4427   71.9734   -7.5578 O.3     1  UNL1       -0.3308
     12 O          17.0046   73.4874   -9.4022 O.3     1  UNL1       -0.3794
     13 H          15.3209   73.2506   -7.2258 H       1  UNL1        0.2106
     14 H          16.0981   73.7959   -9.2692 H       1  UNL1        0.2105
     15 N          18.2027   70.8068   -5.8776 N.ar    1  UNL1       -0.2551
     16 C          17.2966   69.8605   -5.5739 C.ar    1  UNL1        0.3323
     17 N          17.3305   69.2240   -4.3881 N.ar    1  UNL1       -0.2743
     18 C          18.2820   69.5274   -3.4819 C.ar    1  UNL1        0.2626
     19 C          19.2427   70.5208   -3.7889 C.ar    1  UNL1        0.0795
     20 C          19.1874   71.1398   -4.9869 C.ar    1  UNL1        0.0869
     21 O          16.4331   69.5765   -6.3814 O.2     1  UNL1       -0.2464
     22 O          18.3140   68.9518   -2.4085 O.2     1  UNL1       -0.2670
     23 H          16.6688   68.5451   -4.1847 H       1  UNL1        0.1734
     24 O          21.9685   73.7115   -4.7881 O.3     1  UNL1       -0.2703
     25 P          22.8603   72.8954   -3.7244 P.3     1  UNL1        0.2208
     26 O          22.6364   71.3148   -3.9378 O.3     1  UNL1       -0.4371
     27 O          24.2892   73.2220   -3.9244 O.2     1  UNL1       -0.5170
     28 O          22.4202   73.3032   -2.2302 O.3     1  UNL1       -0.2865
     29 C          21.2663   72.7629   -1.5837 C.3     1  UNL1        0.2611
     30 C          20.8028   73.7191   -0.4821 C.3     1  UNL1        0.1582
     31 C          21.9086   73.8465    0.5702 C.3     1  UNL1        0.1625
     32 C          22.2446   72.4548    1.1131 C.3     1  UNL1        0.1686
     33 C          22.6528   71.5471   -0.0503 C.3     1  UNL1        0.1760
     34 O          21.4560   74.6799    1.6397 O.3     1  UNL1       -0.3801
     35 O          21.0982   71.9076    1.7670 O.3     1  UNL1       -0.3794
     36 O          21.5929   71.4966   -1.0075 O.3     1  UNL1       -0.3263
     37 H          22.1077   74.8051    2.3431 H       1  UNL1        0.2105
     38 H          21.2391   71.0243    2.1357 H       1  UNL1        0.2105
     39 C          19.4329   75.7250   -0.6763 C.2     1  UNL1        0.2231
     40 C          19.1464   77.0785   -1.2717 C.3     1  UNL1        0.0946
     41 N          20.5247   75.0356   -1.0620 N.am    1  UNL1       -0.2994
     42 O          18.6804   75.2545    0.1512 O.2     1  UNL1       -0.2751
     43 H          21.1260   75.4109   -1.7242 H       1  UNL1        0.1496
     44 C          22.9326   70.1383    0.4762 C.3     1  UNL1        0.1693
     45 O          21.7058   69.4109    0.5681 O.3     1  UNL1       -0.3794
     46 H          21.8075   68.5069    0.8958 H       1  UNL1        0.2105
@<TRIPOS>BOND
     1    29    30    1
     2    30    41    1
     3    30    31    1
     4    31    34    1
     5    31    32    1
     6    32    35    1
     7    32    33    1
     8    33    36    1
     9    33    44    1
    10    39    40    1
    11    39    42    2
    12    39    41   am
    13    41    43    1
    14    29    28    1
    15    34    37    1
    16    35    38    1
    17    29    36    1
    18    44    45    1
    19    45    46    1
    20    15     6    1
    21    15    16   ar
    22    16    21    2
    23    16    17   ar
    24    17    23    1
    25    17    18   ar
    26    18    19   ar
    27    19    20   ar
    28    15    20   ar
    29    18    22    2
    30     6     7    1
    31     6    11    1
    32     7     9    1
    33     7     8    1
    34     8    13    1
    35     9    10    1
    36     9    12    1
    37    10     5    1
    38    10    11    1
    39    12    14    1
    40     5     4    1
    41     4     1    1
    42     1     2    1
    43     1    24    1
    44     1     3    2
    45    24    25    1
    46    28    25    1
    47    25    26    1
    48    25    27    2
@<TRIPOS>MOLECULE
UD2
 46 48 0 0 0
SMALL
GASTEIGER

@<TRIPOS>ATOM
      1 P          22.8911   72.1817   -3.2479 P.3     1  UNL1        0.2189
      2 O          23.4856   70.6877   -3.1712 O.3     1  UNL1       -0.4371
      3 O          23.5928   72.9387   -4.3079 O.2     1  UNL1       -0.5170
      4 O          21.3180   72.1164   -3.5867 O.3     1  UNL1       -0.3112
      5 C          20.3141   71.9399   -2.5854 C.3     1  UNL1        0.1811
      6 C          18.0100   71.3550   -5.2847 C.3     1  UNL1        0.2383
      7 C          17.9582   70.0567   -4.4398 C.3     1  UNL1        0.1895
      8 O          16.6659   69.4514   -4.5136 O.3     1  UNL1       -0.3779
      9 C          18.2393   70.5862   -3.0122 C.3     1  UNL1        0.1713
     10 C          18.9320   71.9428   -3.2434 C.3     1  UNL1        0.1764
     11 O          19.0668   72.1180   -4.6628 O.3     1  UNL1       -0.3308
     12 O          17.0160   70.7644   -2.2963 O.3     1  UNL1       -0.3794
     13 H          16.5837   68.6354   -4.0017 H       1  UNL1        0.2106
     14 H          16.5091   69.9505   -2.1735 H       1  UNL1        0.2105
     15 N          18.3440   71.0508   -6.6779 N.ar    1  UNL1       -0.2551
     16 C          17.3593   70.8142   -7.5628 C.ar    1  UNL1        0.3323
     17 N          17.6371   70.5320   -8.8494 N.ar    1  UNL1       -0.2743
     18 C          18.9166   70.4839   -9.2727 C.ar    1  UNL1        0.2626
     19 C          19.9631   70.7318   -8.3521 C.ar    1  UNL1        0.0795
     20 C          19.6554   71.0165   -7.0692 C.ar    1  UNL1        0.0869
     21 O          16.2010   70.8545   -7.1952 O.2     1  UNL1       -0.2464
     22 O          19.1694   70.2289  -10.4370 O.2     1  UNL1       -0.2670
     23 H          16.9151   70.3628   -9.4741 H       1  UNL1        0.1734
     24 O          23.1042   72.9178   -1.8315 O.3     1  UNL1       -0.2703
     25 P          22.9530   74.4402   -1.3290 P.3     1  UNL1        0.2208
     26 O          24.3516   75.2128   -1.5308 O.3     1  UNL1       -0.4371
     27 O          21.8984   75.1170   -2.1151 O.2     1  UNL1       -0.5170
     28 O          22.5524   74.4531    0.2305 O.3     1  UNL1       -0.2865
     29 C          23.3258   73.7994    1.2384 C.3     1  UNL1        0.2611
     30 C          22.4992   72.6760    1.8687 C.3     1  UNL1        0.1582
     31 C          21.2661   73.2803    2.5475 C.3     1  UNL1        0.1625
     32 C          21.7209   74.3157    3.5798 C.3     1  UNL1        0.1686
     33 C          22.5777   75.3762    2.8832 C.3     1  UNL1        0.1760
     34 O          20.5268   72.2465    3.2018 O.3     1  UNL1       -0.3801
     35 O          22.4908   73.6708    4.5959 O.3     1  UNL1       -0.3794
     36 O          23.6901   74.7446    2.2464 O.3     1  UNL1       -0.3263
     37 H          19.7305   72.5583    3.6531 H       1  UNL1        0.2105
     38 H          22.8133   74.2686    5.2849 H       1  UNL1        0.2105
     39 C          22.4910   70.4566    0.8629 C.2     1  UNL1        0.2231
     40 C          22.0542   69.4912   -0.2076 C.3     1  UNL1        0.0946
     41 N          22.0741   71.7376    0.8270 N.am    1  UNL1       -0.2994
     42 O          23.2187   70.0812    1.7583 O.2     1  UNL1       -0.2751
     43 H          21.4931   72.0384    0.1107 H       1  UNL1        0.1496
     44 C          23.0855   76.3817    3.9184 C.3     1  UNL1        0.1693
     45 O          22.0512   76.6543    4.8661 O.3     1  UNL1       -0.3794
     46 H          22.3034   77.2856    5.5537 H       1  UNL1        0.2105
@<TRIPOS>BOND
     1    29    30    1
     2    30    41    1
     3    30    31    1
     4    31    34    1
     5    31    32    1
     6    32    35    1
     7    32    33    1
     8    33    36    1
     9    33    44    1
    10    39    40    1
    11    39    42    2
    12    39    41   am
    13    41    43    1
    14    29    28    1
    15    34    37    1
    16    35    38    1
    17    29    36    1
    18    44    45    1
    19    45    46    1
    20    15     6    1
    21    15    16   ar
    22    16    21    2
    23    16    17   ar
    24    17    23    1
    25    17    18   ar
    26    18    19   ar
    27    19    20   ar
    28    15    20   ar
    29    18    22    2
    30     6     7    1
    31     6    11    1
    32     7     9    1
    33     7     8    1
    34     8    13    1
    35     9    10    1
    36     9    12    1
    37    10     5    1
    38    10    11    1
    39    12    14    1
    40     5     4    1
    41     4     1    1
    42     1     2    1
    43     1    24    1
    44     1     3    2
    45    24    25    1
    46    28    25    1
    47    25    26    1
    48    25    27    2
@<TRIPOS>MOLECULE
UD2
 46 48 0 0 0
SMALL
GASTEIGER

@<TRIPOS>ATOM
      1 P          22.7357   71.9499   -3.1450 P.3     1  UNL1        0.2189
      2 O          22.9558   72.3864   -1.6112 O.3     1  UNL1       -0.4371
      3 O          23.3616   70.6296   -3.3774 O.2     1  UNL1       -0.5170
      4 O          21.1581   71.8582   -3.4556 O.3     1  UNL1       -0.3112
      5 C          20.1662   72.4675   -2.6271 C.3     1  UNL1        0.1811
      6 C          17.9287   71.5270   -5.2814 C.3     1  UNL1        0.2383
      7 C          17.9828   70.2832   -4.3583 C.3     1  UNL1        0.1895
      8 O          16.7461   69.5683   -4.3926 O.3     1  UNL1       -0.3779
      9 C          18.2136   70.9210   -2.9664 C.3     1  UNL1        0.1713
     10 C          18.7911   72.3141   -3.2816 C.3     1  UNL1        0.1764
     11 O          18.9156   72.4125   -4.7093 O.3     1  UNL1       -0.3308
     12 O          16.9772   71.0395   -2.2607 O.3     1  UNL1       -0.3794
     13 H          16.7307   68.7812   -3.8314 H       1  UNL1        0.2106
     14 H          16.5399   70.1951   -2.0873 H       1  UNL1        0.2105
     15 N          18.2918   71.1669   -6.6538 N.ar    1  UNL1       -0.2551
     16 C          17.3267   70.8728   -7.5431 C.ar    1  UNL1        0.3323
     17 N          17.6315   70.5384   -8.8110 N.ar    1  UNL1       -0.2743
     18 C          18.9187   70.4951   -9.2108 C.ar    1  UNL1        0.2626
     19 C          19.9447   70.8035   -8.2854 C.ar    1  UNL1        0.0795
     20 C          19.6101   71.1395   -7.0218 C.ar    1  UNL1        0.0869
     21 O          16.1618   70.9079   -7.1966 O.2     1  UNL1       -0.2464
     22 O          19.1959   70.1931  -10.3582 O.2     1  UNL1       -0.2670
     23 H          16.9234   70.3280   -9.4391 H       1  UNL1        0.1734
     24 O          23.4106   73.0426   -4.1164 O.3     1  UNL1       -0.2703
     25 P          23.4424   74.6524   -4.1366 P.3     1  UNL1        0.2208
     26 O          22.4520   75.1940   -5.2853 O.3     1  UNL1       -0.4371
     27 O          23.0033   75.1713   -2.8226 O.2     1  UNL1       -0.5170
     28 O          24.9417   75.1557   -4.4390 O.3     1  UNL1       -0.2865
     29 C          25.8763   75.4815   -3.4085 C.3     1  UNL1        0.2611
     30 C          26.0279   77.0018   -3.3179 C.3     1  UNL1        0.1582
     31 C          26.5914   77.5299   -4.6407 C.3     1  UNL1        0.1625
     32 C          27.9218   76.8302   -4.9320 C.3     1  UNL1        0.1686
     33 C          27.6971   75.3160   -4.9606 C.3     1  UNL1        0.1760
     34 O          26.8053   78.9396   -4.5395 O.3     1  UNL1       -0.3801
     35 O          28.8658   77.1543   -3.9097 O.3     1  UNL1       -0.3794
     36 O          27.1434   74.8947   -3.7124 O.3     1  UNL1       -0.3263
     37 H          27.1614   79.3417   -5.3436 H       1  UNL1        0.2105
     38 H          29.7335   76.7435   -4.0300 H       1  UNL1        0.2105
     39 C          24.6027   78.6138   -2.1741 C.2     1  UNL1        0.2231
     40 C          23.2575   79.2396   -1.9145 C.3     1  UNL1        0.0946
     41 N          24.7190   77.6099   -3.0657 N.am    1  UNL1       -0.2994
     42 O          25.5825   79.0132   -1.5804 O.2     1  UNL1       -0.2751
     43 H          23.9357   77.2896   -3.5399 H       1  UNL1        0.1496
     44 C          29.0327   74.6067   -5.1918 C.3     1  UNL1        0.1693
     45 O          29.4916   74.0410   -3.9623 O.3     1  UNL1       -0.3794
     46 H          30.3356   73.5746   -4.0342 H       1  UNL1        0.2105
@<TRIPOS>BOND
     1    29    30    1
     2    30    41    1
     3    30    31    1
     4    31    34    1
     5    31    32    1
     6    32    35    1
     7    32    33    1
     8    33    36    1
     9    33    44    1
    10    39    40    1
    11    39    42    2
    12    39    41   am
    13    41    43    1
    14    29    28    1
    15    34    37    1
    16    35    38    1
    17    29    36    1
    18    44    45    1
    19    45    46    1
    20    15     6    1
    21    15    16   ar
    22    16    21    2
    23    16    17   ar
    24    17    23    1
    25    17    18   ar
    26    18    19   ar
    27    19    20   ar
    28    15    20   ar
    29    18    22    2
    30     6     7    1
    31     6    11    1
    32     7     9    1
    33     7     8    1
    34     8    13    1
    35     9    10    1
    36     9    12    1
    37    10     5    1
    38    10    11    1
    39    12    14    1
    40     5     4    1
    41     4     1    1
    42     1     2    1
    43     1    24    1
    44     1     3    2
    45    24    25    1
    46    28    25    1
    47    25    26    1
    48    25    27    2
@<TRIPOS>MOLECULE
UD2
 46 48 0 0 0
SMALL
GASTEIGER

@<TRIPOS>ATOM
      1 P          22.0954   70.7046   -0.3664 P.3     1  UNL1        0.2189
      2 O          21.6310   69.4420    0.5177 O.3     1  UNL1       -0.4371
      3 O          23.2471   70.3191   -1.2113 O.2     1  UNL1       -0.5170
      4 O          20.8761   71.1796   -1.3052 O.3     1  UNL1       -0.3112
      5 C          20.8614   70.9806   -2.7200 C.3     1  UNL1        0.1811
      6 C          18.3240   71.0602   -5.2679 C.3     1  UNL1        0.2383
      7 C          18.1095   69.7054   -4.5465 C.3     1  UNL1        0.1895
      8 O          16.7321   69.3262   -4.5723 O.3     1  UNL1       -0.3779
      9 C          18.5661   70.0296   -3.1029 C.3     1  UNL1        0.1713
     10 C          19.4601   71.2743   -3.2615 C.3     1  UNL1        0.1764
     11 O          19.5313   71.5741   -4.6645 O.3     1  UNL1       -0.3308
     12 O          17.4383   70.3252   -2.2774 O.3     1  UNL1       -0.3794
     13 H          16.5472   68.4846   -4.1338 H       1  UNL1        0.2106
     14 H          16.8111   69.5947   -2.1908 H       1  UNL1        0.2105
     15 N          18.5125   70.8548   -6.7057 N.ar    1  UNL1       -0.2551
     16 C          17.4402   70.7747   -7.5136 C.ar    1  UNL1        0.3323
     17 N          17.5838   70.5861   -8.8388 N.ar    1  UNL1       -0.2743
     18 C          18.8143   70.4758   -9.3793 C.ar    1  UNL1        0.2626
     19 C          19.9519   70.5593   -8.5407 C.ar    1  UNL1        0.0795
     20 C          19.7785   70.7529   -7.2163 C.ar    1  UNL1        0.0869
     21 O          16.3246   70.8726   -7.0401 O.2     1  UNL1       -0.2464
     22 O          18.9457   70.3055  -10.5785 O.2     1  UNL1       -0.2670
     23 H          16.8000   70.5294   -9.4068 H       1  UNL1        0.1734
     24 O          22.5244   71.9133    0.6074 O.3     1  UNL1       -0.2703
     25 P          21.7587   72.7588    1.7440 P.3     1  UNL1        0.2208
     26 O          20.7622   73.8146    1.0468 O.3     1  UNL1       -0.4371
     27 O          20.9802   71.8395    2.6027 O.2     1  UNL1       -0.5170
     28 O          22.8362   73.5494    2.6420 O.3     1  UNL1       -0.2865
     29 C          22.6893   74.9237    3.0040 C.3     1  UNL1        0.2611
     30 C          24.0228   75.4588    3.5315 C.3     1  UNL1        0.1582
     31 C          24.4102   74.6839    4.7948 C.3     1  UNL1        0.1625
     32 C          23.2847   74.8127    5.8249 C.3     1  UNL1        0.1686
     33 C          21.9794   74.3023    5.2088 C.3     1  UNL1        0.1760
     34 O          25.6172   75.2259    5.3358 O.3     1  UNL1       -0.3801
     35 O          23.1334   76.1835    6.1982 O.3     1  UNL1       -0.3794
     36 O          21.6930   75.0440    4.0214 O.3     1  UNL1       -0.3263
     37 H          25.9221   74.7814    6.1387 H       1  UNL1        0.2105
     38 H          22.4353   76.3397    6.8494 H       1  UNL1        0.2105
     39 C          25.3028   76.2627    1.6202 C.2     1  UNL1        0.2231
     40 C          26.3682   76.0813    0.5711 C.3     1  UNL1        0.0946
     41 N          25.0592   75.2814    2.5112 N.am    1  UNL1       -0.2994
     42 O          24.6630   77.2927    1.6635 O.2     1  UNL1       -0.2751
     43 H          25.5698   74.4573    2.4763 H       1  UNL1        0.1496
     44 C          20.8378   74.4830    6.2111 C.3     1  UNL1        0.1693
     45 O          19.8422   73.4828    5.9857 O.3     1  UNL1       -0.3794
     46 H          19.0866   73.5367    6.5867 H       1  UNL1        0.2105
@<TRIPOS>BOND
     1    29    30    1
     2    30    41    1
     3    30    31    1
     4    31    34    1
     5    31    32    1
     6    32    35    1
     7    32    33    1
     8    33    36    1
     9    33    44    1
    10    39    40    1
    11    39    42    2
    12    39    41   am
    13    41    43    1
    14    29    28    1
    15    34    37    1
    16    35    38    1
    17    29    36    1
    18    44    45    1
    19    45    46    1
    20    15     6    1
    21    15    16   ar
    22    16    21    2
    23    16    17   ar
    24    17    23    1
    25    17    18   ar
    26    18    19   ar
    27    19    20   ar
    28    15    20   ar
    29    18    22    2
    30     6     7    1
    31     6    11    1
    32     7     9    1
    33     7     8    1
    34     8    13    1
    35     9    10    1
    36     9    12    1
    37    10     5    1
    38    10    11    1
    39    12    14    1
    40     5     4    1
    41     4     1    1
    42     1     2    1
    43     1    24    1
    44     1     3    2
    45    24    25    1
    46    28    25    1
    47    25    26    1
    48    25    27    2
@<TRIPOS>MOLECULE
UD2
 46 48 0 0 0
SMALL
GASTEIGER

@<TRIPOS>ATOM
      1 P          21.7940   70.7693   -0.5406 P.3     1  UNL1        0.2189
      2 O          21.5887   69.3862    0.2571 O.3     1  UNL1       -0.4371
      3 O          22.9422   70.6408   -1.4646 O.2     1  UNL1       -0.5170
      4 O          20.4628   71.1059   -1.3823 O.3     1  UNL1       -0.3112
      5 C          20.4826   71.8440   -2.6055 C.3     1  UNL1        0.1811
      6 C          18.0925   71.2953   -5.2367 C.3     1  UNL1        0.2383
      7 C          18.0709   69.9839   -4.4109 C.3     1  UNL1        0.1895
      8 O          16.7782   69.3765   -4.4519 O.3     1  UNL1       -0.3779
      9 C          18.3976   70.4919   -2.9852 C.3     1  UNL1        0.1713
     10 C          19.0797   71.8536   -3.2177 C.3     1  UNL1        0.1764
     11 O          19.1675   72.0511   -4.6378 O.3     1  UNL1       -0.3308
     12 O          17.1981   70.6558   -2.2269 O.3     1  UNL1       -0.3794
     13 H          16.7144   68.5525   -3.9503 H       1  UNL1        0.2106
     14 H          16.6971   69.8388   -2.1004 H       1  UNL1        0.2105
     15 N          18.3813   71.0136   -6.6446 N.ar    1  UNL1       -0.2551
     16 C          17.3681   70.7996   -7.5028 C.ar    1  UNL1        0.3323
     17 N          17.6042   70.5383   -8.8021 N.ar    1  UNL1       -0.2743
     18 C          18.8697   70.4890   -9.2654 C.ar    1  UNL1        0.2626
     19 C          19.9458   70.7133   -8.3733 C.ar    1  UNL1        0.0795
     20 C          19.6797   70.9773   -7.0768 C.ar    1  UNL1        0.0869
     21 O          16.2220   70.8412   -7.0990 O.2     1  UNL1       -0.2464
     22 O          19.0848   70.2530  -10.4413 O.2     1  UNL1       -0.2670
     23 H          16.8621   70.3852   -9.4071 H       1  UNL1        0.1734
     24 O          22.0793   71.9571    0.5086 O.3     1  UNL1       -0.2703
     25 P          22.2098   72.0249    2.1122 P.3     1  UNL1        0.2208
     26 O          20.7554   71.8340    2.7770 O.3     1  UNL1       -0.4371
     27 O          23.1105   70.9486    2.5800 O.2     1  UNL1       -0.5170
     28 O          22.8131   73.4547    2.5415 O.3     1  UNL1       -0.2865
     29 C          23.0599   73.8190    3.9008 C.3     1  UNL1        0.2611
     30 C          22.1351   74.9725    4.2968 C.3     1  UNL1        0.1582
     31 C          22.4506   76.1912    3.4240 C.3     1  UNL1        0.1625
     32 C          23.9299   76.5518    3.5850 C.3     1  UNL1        0.1686
     33 C          24.7857   75.3370    3.2161 C.3     1  UNL1        0.1760
     34 O          21.6422   77.2956    3.8364 O.3     1  UNL1       -0.3801
     35 O          24.1863   76.9234    4.9405 O.3     1  UNL1       -0.3794
     36 O          24.4210   74.2305    4.0435 O.3     1  UNL1       -0.3263
     37 H          21.7895   78.1029    3.3249 H       1  UNL1        0.2105
     38 H          25.1067   77.1645    5.1156 H       1  UNL1        0.2105
     39 C          19.9716   74.2482    5.1525 C.2     1  UNL1        0.2231
     40 C          18.5373   73.8376    4.9451 C.3     1  UNL1        0.0946
     41 N          20.7402   74.5730    4.0942 N.am    1  UNL1       -0.2994
     42 O          20.4358   74.2867    6.2728 O.2     1  UNL1       -0.2751
     43 H          20.3698   74.5414    3.1982 H       1  UNL1        0.1496
     44 C          26.2633   75.6701    3.4315 C.3     1  UNL1        0.1693
     45 O          26.6624   75.2469    4.7368 O.3     1  UNL1       -0.3794
     46 H          27.5899   75.4269    4.9428 H       1  UNL1        0.2105
@<TRIPOS>BOND
     1    29    30    1
     2    30    41    1
     3    30    31    1
     4    31    34    1
     5    31    32    1
     6    32    35    1
     7    32    33    1
     8    33    36    1
     9    33    44    1
    10    39    40    1
    11    39    42    2
    12    39    41   am
    13    41    43    1
    14    29    28    1
    15    34    37    1
    16    35    38    1
    17    29    36    1
    18    44    45    1
    19    45    46    1
    20    15     6    1
    21    15    16   ar
    22    16    21    2
    23    16    17   ar
    24    17    23    1
    25    17    18   ar
    26    18    19   ar
    27    19    20   ar
    28    15    20   ar
    29    18    22    2
    30     6     7    1
    31     6    11    1
    32     7     9    1
    33     7     8    1
    34     8    13    1
    35     9    10    1
    36     9    12    1
    37    10     5    1
    38    10    11    1
    39    12    14    1
    40     5     4    1
    41     4     1    1
    42     1     2    1
    43     1    24    1
    44     1     3    2
    45    24    25    1
    46    28    25    1
    47    25    26    1
    48    25    27    2
@<TRIPOS>MOLECULE
UD2
 46 48 0 0 0
SMALL
GASTEIGER

@<TRIPOS>ATOM
      1 P          23.1129   74.0419   -3.9420 P.3     1  UNL1        0.2189
      2 O          23.8210   75.1431   -4.8786 O.3     1  UNL1       -0.4371
      3 O          23.8881   72.7826   -3.9877 O.2     1  UNL1       -0.5170
      4 O          23.0569   74.5830   -2.4262 O.3     1  UNL1       -0.3112
      5 C          22.1943   74.0250   -1.4332 C.3     1  UNL1        0.1811
      6 C          23.0760   72.4247    1.6649 C.3     1  UNL1        0.2383
      7 C          21.9964   71.5026    1.0434 C.3     1  UNL1        0.1895
      8 O          22.2115   70.1406    1.4183 O.3     1  UNL1       -0.3779
      9 C          22.2326   71.7018   -0.4738 C.3     1  UNL1        0.1713
     10 C          22.9848   73.0432   -0.5648 C.3     1  UNL1        0.1764
     11 O          23.1039   73.5584    0.7708 O.3     1  UNL1       -0.3308
     12 O          23.0345   70.6417   -0.9972 O.3     1  UNL1       -0.3794
     13 H          21.5611   69.5248    1.0545 H       1  UNL1        0.2106
     14 H          22.6343   69.7659   -0.9121 H       1  UNL1        0.2105
     15 N          22.6851   72.8403    3.0137 N.ar    1  UNL1       -0.2551
     16 C          21.4277   72.6242    3.4395 C.ar    1  UNL1        0.3323
     17 N          21.0408   72.9960    4.6741 N.ar    1  UNL1       -0.2743
     18 C          21.9158   73.5933    5.5085 C.ar    1  UNL1        0.2626
     19 C          23.2428   73.8260    5.0738 C.ar    1  UNL1        0.0795
     20 C          23.6045   73.4390    3.8324 C.ar    1  UNL1        0.0869
     21 O          20.6282   72.0864    2.6979 O.2     1  UNL1       -0.2464
     22 O          21.5670   73.9299    6.6263 O.2     1  UNL1       -0.2670
     23 H          20.1301   72.8338    4.9647 H       1  UNL1        0.1734
     24 O          21.6159   73.7706   -4.4699 O.3     1  UNL1       -0.2703
     25 P          20.9767   73.4833   -5.9196 P.3     1  UNL1        0.2208
     26 O          20.6008   74.8809   -6.6263 O.3     1  UNL1       -0.4371
     27 O          21.9567   72.7563   -6.7559 O.2     1  UNL1       -0.5170
     28 O          19.6467   72.5912   -5.7524 O.3     1  UNL1       -0.2865
     29 C          18.3907   72.9503   -6.3310 C.3     1  UNL1        0.2611
     30 C          17.3111   71.9753   -5.8549 C.3     1  UNL1        0.1582
     31 C          17.6600   70.5646   -6.3391 C.3     1  UNL1        0.1625
     32 C          17.7971   70.5792   -7.8640 C.3     1  UNL1        0.1686
     33 C          18.8583   71.6082   -8.2628 C.3     1  UNL1        0.1760
     34 O          16.6197   69.6597   -5.9618 O.3     1  UNL1       -0.3801
     35 O          16.5441   70.9318   -8.4530 O.3     1  UNL1       -0.3794
     36 O          18.4889   72.8921   -7.7555 O.3     1  UNL1       -0.3263
     37 H          16.7754   68.7456   -6.2364 H       1  UNL1        0.2105
     38 H          16.5576   70.9613   -9.4199 H       1  UNL1        0.2105
     39 C          16.0903   72.2757   -3.7675 C.2     1  UNL1        0.2231
     40 C          16.0267   72.2903   -2.2628 C.3     1  UNL1        0.0946
     41 N          17.2502   71.9895   -4.3911 N.am    1  UNL1       -0.2994
     42 O          15.0969   72.5219   -4.4192 O.2     1  UNL1       -0.2751
     43 H          18.0449   71.7936   -3.8705 H       1  UNL1        0.1496
     44 C          18.9590   71.6718   -9.7880 C.3     1  UNL1        0.1693
     45 O          18.6413   70.3927  -10.3408 O.3     1  UNL1       -0.3794
     46 H          18.6850   70.3590  -11.3062 H       1  UNL1        0.2105
@<TRIPOS>BOND
     1    29    30    1
     2    30    41    1
     3    30    31    1
     4    31    34    1
     5    31    32    1
     6    32    35    1
     7    32    33    1
     8    33    36    1
     9    33    44    1
    10    39    40    1
    11    39    42    2
    12    39    41   am
    13    41    43    1
    14    29    28    1
    15    34    37    1
    16    35    38    1
    17    29    36    1
    18    44    45    1
    19    45    46    1
    20    15     6    1
    21    15    16   ar
    22    16    21    2
    23    16    17   ar
    24    17    23    1
    25    17    18   ar
    26    18    19   ar
    27    19    20   ar
    28    15    20   ar
    29    18    22    2
    30     6     7    1
    31     6    11    1
    32     7     9    1
    33     7     8    1
    34     8    13    1
    35     9    10    1
    36     9    12    1
    37    10     5    1
    38    10    11    1
    39    12    14    1
    40     5     4    1
    41     4     1    1
    42     1     2    1
    43     1    24    1
    44     1     3    2
    45    24    25    1
    46    28    25    1
    47    25    26    1
    48    25    27    2
@<TRIPOS>MOLECULE
UD2
 46 48 0 0 0
SMALL
GASTEIGER

@<TRIPOS>ATOM
      1 P          22.7258   72.2402   -2.7134 P.3     1  UNL1        0.2189
      2 O          23.7460   72.1799   -3.9571 O.3     1  UNL1       -0.4371
      3 O          22.8613   73.5434   -2.0262 O.2     1  UNL1       -0.5170
      4 O          21.2165   72.0701   -3.2488 O.3     1  UNL1       -0.3112
      5 C          20.7157   70.8441   -3.7852 C.3     1  UNL1        0.1811
      6 C          17.2372   71.1666   -4.6412 C.3     1  UNL1        0.2383
      7 C          17.5937   69.7025   -5.0037 C.3     1  UNL1        0.1895
      8 O          16.4601   68.8472   -4.8444 O.3     1  UNL1       -0.3779
      9 C          18.6893   69.3671   -3.9623 C.3     1  UNL1        0.1713
     10 C          19.2133   70.7436   -3.5104 C.3     1  UNL1        0.1764
     11 O          18.5098   71.7395   -4.2698 O.3     1  UNL1       -0.3308
     12 O          18.1268   68.6580   -2.8571 O.3     1  UNL1       -0.3794
     13 H          16.6328   67.9207   -5.0598 H       1  UNL1        0.2106
     14 H          17.7292   67.8094   -3.0945 H       1  UNL1        0.2105
     15 N          16.6762   71.8632   -5.8009 N.ar    1  UNL1       -0.2551
     16 C          16.9906   71.4513   -7.0420 C.ar    1  UNL1        0.3323
     17 N          16.4898   72.0729   -8.1260 N.ar    1  UNL1       -0.2743
     18 C          15.6578   73.1243   -7.9815 C.ar    1  UNL1        0.2626
     19 C          15.3175   73.5679   -6.6809 C.ar    1  UNL1        0.0795
     20 C          15.8309   72.9233   -5.6120 C.ar    1  UNL1        0.0869
     21 O          17.7394   70.5044   -7.1873 O.2     1  UNL1       -0.2464
     22 O          15.2035   73.6875   -8.9618 O.2     1  UNL1       -0.2670
     23 H          16.7277   71.7638   -9.0136 H       1  UNL1        0.1734
     24 O          23.0658   71.0512   -1.6819 O.3     1  UNL1       -0.2703
     25 P          22.5269   70.6535   -0.2175 P.3     1  UNL1        0.2208
     26 O          21.0759   69.9672   -0.3483 O.3     1  UNL1       -0.4371
     27 O          23.4674   69.7013    0.4127 O.2     1  UNL1       -0.5170
     28 O          22.4146   71.9782    0.6909 O.3     1  UNL1       -0.2865
     29 C          21.2640   72.2855    1.4803 C.3     1  UNL1        0.2611
     30 C          20.7248   73.6620    1.0838 C.3     1  UNL1        0.1582
     31 C          21.7894   74.7227    1.3808 C.3     1  UNL1        0.1625
     32 C          22.1658   74.6517    2.8632 C.3     1  UNL1        0.1686
     33 C          22.6496   73.2366    3.1911 C.3     1  UNL1        0.1760
     34 O          21.2673   76.0194    1.0822 O.3     1  UNL1       -0.3801
     35 O          21.0228   74.9632    3.6617 O.3     1  UNL1       -0.3794
     36 O          21.6247   72.2965    2.8631 O.3     1  UNL1       -0.3263
     37 H          21.8899   76.7410    1.2464 H       1  UNL1        0.2105
     38 H          21.1886   74.9366    4.6145 H       1  UNL1        0.2105
     39 C          19.3158   74.3181   -0.7928 C.2     1  UNL1        0.2231
     40 C          18.9921   74.3279   -2.2638 C.3     1  UNL1        0.0946
     41 N          20.4106   73.6709   -0.3471 N.am    1  UNL1       -0.2994
     42 O          18.5906   74.8931   -0.0082 O.2     1  UNL1       -0.2751
     43 H          20.9901   73.2102   -0.9740 H       1  UNL1        0.1496
     44 C          22.9712   73.1410    4.6837 C.3     1  UNL1        0.1693
     45 O          21.8290   72.6483    5.3872 O.3     1  UNL1       -0.3794
     46 H          21.9611   72.5618    6.3412 H       1  UNL1        0.2105
@<TRIPOS>BOND
     1    29    30    1
     2    30    41    1
     3    30    31    1
     4    31    34    1
     5    31    32    1
     6    32    35    1
     7    32    33    1
     8    33    36    1
     9    33    44    1
    10    39    40    1
    11    39    42    2
    12    39    41   am
    13    41    43    1
    14    29    28    1
    15    34    37    1
    16    35    38    1
    17    29    36    1
    18    44    45    1
    19    45    46    1
    20    15     6    1
    21    15    16   ar
    22    16    21    2
    23    16    17   ar
    24    17    23    1
    25    17    18   ar
    26    18    19   ar
    27    19    20   ar
    28    15    20   ar
    29    18    22    2
    30     6     7    1
    31     6    11    1
    32     7     9    1
    33     7     8    1
    34     8    13    1
    35     9    10    1
    36     9    12    1
    37    10     5    1
    38    10    11    1
    39    12    14    1
    40     5     4    1
    41     4     1    1
    42     1     2    1
    43     1    24    1
    44     1     3    2
    45    24    25    1
    46    28    25    1
    47    25    26    1
    48    25    27    2
@<TRIPOS>MOLECULE
UD2
 46 48 0 0 0
SMALL
GASTEIGER

@<TRIPOS>ATOM
      1 P          19.7945   70.0239   -2.5030 P.3     1  UNL1        0.2189
      2 O          18.5238   69.0488   -2.3420 O.3     1  UNL1       -0.4371
      3 O          20.7831   69.4012   -3.4107 O.2     1  UNL1       -0.5170
      4 O          19.3147   71.4332   -3.1175 O.3     1  UNL1       -0.3112
      5 C          17.9420   71.8233   -3.1880 C.3     1  UNL1        0.1811
      6 C          18.7247   72.7056   -6.5859 C.3     1  UNL1        0.2383
      7 C          18.5607   71.1647   -6.6113 C.3     1  UNL1        0.1895
      8 O          18.0673   70.7251   -7.8782 O.3     1  UNL1       -0.3779
      9 C          17.5101   70.9310   -5.4981 C.3     1  UNL1        0.1713
     10 C          17.5929   72.2009   -4.6297 C.3     1  UNL1        0.1764
     11 O          18.6276   73.0302   -5.1820 O.3     1  UNL1       -0.3308
     12 O          16.2054   70.7956   -6.0639 O.3     1  UNL1       -0.3794
     13 H          17.9484   69.7679   -7.9437 H       1  UNL1        0.2106
     14 H          16.1130   70.0453   -6.6664 H       1  UNL1        0.2105
     15 N          20.0336   73.0938   -7.1162 N.ar    1  UNL1       -0.2551
     16 C          20.1451   73.4776   -8.4004 C.ar    1  UNL1        0.3323
     17 N          21.3355   73.8394   -8.9144 N.ar    1  UNL1       -0.2743
     18 C          22.4411   73.8238   -8.1425 C.ar    1  UNL1        0.2626
     19 C          22.3381   73.4230   -6.7887 C.ar    1  UNL1        0.0795
     20 C          21.1313   73.0694   -6.2986 C.ar    1  UNL1        0.0869
     21 O          19.1565   73.4967   -9.1080 O.2     1  UNL1       -0.2464
     22 O          23.5191   74.1515   -8.6064 O.2     1  UNL1       -0.2670
     23 H          21.3984   74.1124   -9.8427 H       1  UNL1        0.1734
     24 O          20.4689   70.2696   -1.0615 O.3     1  UNL1       -0.2703
     25 P          21.9892   70.3252   -0.5335 P.3     1  UNL1        0.2208
     26 O          22.3151   68.9889    0.3041 O.3     1  UNL1       -0.4371
     27 O          22.9094   70.4199   -1.6878 O.2     1  UNL1       -0.5170
     28 O          22.1814   71.6131    0.4137 O.3     1  UNL1       -0.2865
     29 C          21.0854   72.3737    0.9253 C.3     1  UNL1        0.2611
     30 C          21.2452   73.8397    0.5156 C.3     1  UNL1        0.1582
     31 C          22.5291   74.3977    1.1376 C.3     1  UNL1        0.1625
     32 C          22.4649   74.2233    2.6574 C.3     1  UNL1        0.1686
     33 C          22.2581   72.7420    2.9845 C.3     1  UNL1        0.1760
     34 O          22.6484   75.7864    0.8208 O.3     1  UNL1       -0.3801
     35 O          21.3750   74.9850    3.1800 O.3     1  UNL1       -0.3794
     36 O          21.0642   72.2781    2.3510 O.3     1  UNL1       -0.3263
     37 H          23.4412   76.2053    1.1830 H       1  UNL1        0.2105
     38 H          21.2738   74.9206    4.1400 H       1  UNL1        0.2105
     39 C          22.5287   73.9145   -1.5543 C.2     1  UNL1        0.2231
     40 C          22.6140   74.0109   -3.0550 C.3     1  UNL1        0.0946
     41 N          21.3273   73.9338   -0.9441 N.am    1  UNL1       -0.2994
     42 O          23.5421   73.8195   -0.8938 O.2     1  UNL1       -0.2751
     43 H          20.5169   74.0107   -1.4717 H       1  UNL1        0.1496
     44 C          22.1332   72.5671    4.4992 C.3     1  UNL1        0.1693
     45 O          20.8155   72.9323    4.9146 O.3     1  UNL1       -0.3794
     46 H          20.6642   72.8460    5.8657 H       1  UNL1        0.2105
@<TRIPOS>BOND
     1    29    30    1
     2    30    41    1
     3    30    31    1
     4    31    34    1
     5    31    32    1
     6    32    35    1
     7    32    33    1
     8    33    36    1
     9    33    44    1
    10    39    40    1
    11    39    42    2
    12    39    41   am
    13    41    43    1
    14    29    28    1
    15    34    37    1
    16    35    38    1
    17    29    36    1
    18    44    45    1
    19    45    46    1
    20    15     6    1
    21    15    16   ar
    22    16    21    2
    23    16    17   ar
    24    17    23    1
    25    17    18   ar
    26    18    19   ar
    27    19    20   ar
    28    15    20   ar
    29    18    22    2
    30     6     7    1
    31     6    11    1
    32     7     9    1
    33     7     8    1
    34     8    13    1
    35     9    10    1
    36     9    12    1
    37    10     5    1
    38    10    11    1
    39    12    14    1
    40     5     4    1
    41     4     1    1
    42     1     2    1
    43     1    24    1
    44     1     3    2
    45    24    25    1
    46    28    25    1
    47    25    26    1
    48    25    27    2
@<TRIPOS>MOLECULE
UD2
 46 48 0 0 0
SMALL
GASTEIGER

@<TRIPOS>ATOM
      1 P          22.8526   71.9446   -3.1462 P.3     1  UNL1        0.2189
      2 O          23.4383   70.4454   -3.1714 O.3     1  UNL1       -0.4371
      3 O          23.5700   72.7719   -4.1412 O.2     1  UNL1       -0.5170
      4 O          21.2830   71.9135   -3.5056 O.3     1  UNL1       -0.3112
      5 C          20.2613   72.2074   -2.5511 C.3     1  UNL1        0.1811
      6 C          18.0389   71.3912   -5.2588 C.3     1  UNL1        0.2383
      7 C          18.1041   70.0992   -4.4052 C.3     1  UNL1        0.1895
      8 O          16.8749   69.3746   -4.4819 O.3     1  UNL1       -0.3779
      9 C          18.3255   70.6619   -2.9798 C.3     1  UNL1        0.1713
     10 C          18.8891   72.0761   -3.2166 C.3     1  UNL1        0.1764
     11 O          19.0155   72.2541   -4.6364 O.3     1  UNL1       -0.3308
     12 O          17.0865   70.7289   -2.2718 O.3     1  UNL1       -0.3794
     13 H          16.8666   68.5578   -3.9648 H       1  UNL1        0.2106
     14 H          16.6576   69.8717   -2.1462 H       1  UNL1        0.2105
     15 N          18.4085   71.1108   -6.6479 N.ar    1  UNL1       -0.2551
     16 C          19.6449   71.4128   -7.0825 C.ar    1  UNL1        0.3323
     17 N          20.0118   71.1663   -8.3541 N.ar    1  UNL1       -0.2743
     18 C          19.1385   70.6071   -9.2162 C.ar    1  UNL1        0.2626
     19 C          17.8340   70.2831   -8.7719 C.ar    1  UNL1        0.0795
     20 C          17.4946   70.5373   -7.4906 C.ar    1  UNL1        0.0869
     21 O          20.4427   71.9173   -6.3162 O.2     1  UNL1       -0.2464
     22 O          19.4694   70.3831  -10.3672 O.2     1  UNL1       -0.2670
     23 H          20.9068   71.3914   -8.6514 H       1  UNL1        0.1734
     24 O          23.0539   72.5752   -1.6782 O.3     1  UNL1       -0.2703
     25 P          23.0851   74.0785   -1.1020 P.3     1  UNL1        0.2208
     26 O          24.6120   74.5778   -0.9887 O.3     1  UNL1       -0.4371
     27 O          22.3408   74.9728   -2.0155 O.2     1  UNL1       -0.5170
     28 O          22.4006   74.1089    0.3552 O.3     1  UNL1       -0.2865
     29 C          21.2400   73.3441    0.6862 C.3     1  UNL1        0.2611
     30 C          20.0968   74.2884    1.0659 C.3     1  UNL1        0.1582
     31 C          20.4977   75.0872    2.3099 C.3     1  UNL1        0.1625
     32 C          20.8453   74.1131    3.4389 C.3     1  UNL1        0.1686
     33 C          21.9600   73.1755    2.9675 C.3     1  UNL1        0.1760
     34 O          19.4077   75.9185    2.7149 O.3     1  UNL1       -0.3801
     35 O          19.6891   73.3470    3.7816 O.3     1  UNL1       -0.3794
     36 O          21.5345   72.4861    1.7904 O.3     1  UNL1       -0.3263
     37 H          19.5924   76.4545    3.4984 H       1  UNL1        0.2105
     38 H          19.8369   72.7068    4.4917 H       1  UNL1        0.2105
     39 C          18.7123   75.0743   -0.7789 C.2     1  UNL1        0.2231
     40 C          18.4407   76.0202   -1.9191 C.3     1  UNL1        0.0946
     41 N          19.8334   75.2087   -0.0432 N.am    1  UNL1       -0.2994
     42 O          17.9216   74.1906   -0.5221 O.2     1  UNL1       -0.2751
     43 H          20.4664   75.9145   -0.2488 H       1  UNL1        0.1496
     44 C          22.2719   72.1604    4.0688 C.3     1  UNL1        0.1693
     45 O          21.8693   72.6899    5.3337 O.3     1  UNL1       -0.3794
     46 H          22.0375   72.0984    6.0798 H       1  UNL1        0.2105
@<TRIPOS>BOND
     1    29    30    1
     2    30    41    1
     3    30    31    1
     4    31    34    1
     5    31    32    1
     6    32    35    1
     7    32    33    1
     8    33    36    1
     9    33    44    1
    10    39    40    1
    11    39    42    2
    12    39    41   am
    13    41    43    1
    14    29    28    1
    15    34    37    1
    16    35    38    1
    17    29    36    1
    18    44    45    1
    19    45    46    1
    20    15     6    1
    21    15    16   ar
    22    16    21    2
    23    16    17   ar
    24    17    23    1
    25    17    18   ar
    26    18    19   ar
    27    19    20   ar
    28    15    20   ar
    29    18    22    2
    30     6     7    1
    31     6    11    1
    32     7     9    1
    33     7     8    1
    34     8    13    1
    35     9    10    1
    36     9    12    1
    37    10     5    1
    38    10    11    1
    39    12    14    1
    40     5     4    1
    41     4     1    1
    42     1     2    1
    43     1    24    1
    44     1     3    2
    45    24    25    1
    46    28    25    1
    47    25    26    1
    48    25    27    2
@<TRIPOS>MOLECULE
UD2
 46 48 0 0 0
SMALL
GASTEIGER

@<TRIPOS>ATOM
      1 P          22.7129   72.0526   -3.3598 P.3     1  UNL1        0.2189
      2 O          22.8830   72.6208   -4.8564 O.3     1  UNL1       -0.4371
      3 O          23.4841   70.7981   -3.2172 O.2     1  UNL1       -0.5170
      4 O          23.2600   73.1417   -2.3071 O.3     1  UNL1       -0.3112
      5 C          22.4659   73.6538   -1.2354 C.3     1  UNL1        0.1811
      6 C          22.7811   73.1822    2.3164 C.3     1  UNL1        0.2383
      7 C          21.3015   72.8393    2.0075 C.3     1  UNL1        0.1895
      8 O          20.8066   71.8522    2.9145 O.3     1  UNL1       -0.3779
      9 C          21.3924   72.2722    0.5696 C.3     1  UNL1        0.1713
     10 C          22.7229   72.8294    0.0285 C.3     1  UNL1        0.1764
     11 O          23.2842   73.6663    1.0522 O.3     1  UNL1       -0.3308
     12 O          21.4221   70.8442    0.5975 O.3     1  UNL1       -0.3794
     13 H          19.8846   71.6047    2.7621 H       1  UNL1        0.2106
     14 H          20.6329   70.4410    0.9836 H       1  UNL1        0.2105
     15 N          22.8657   74.2265    3.3398 N.ar    1  UNL1       -0.2551
     16 C          22.2916   75.4228    3.1203 C.ar    1  UNL1        0.3323
     17 N          22.3539   76.4009    4.0431 N.ar    1  UNL1       -0.2743
     18 C          22.9962   76.1928    5.2104 C.ar    1  UNL1        0.2626
     19 C          23.6042   74.9379    5.4552 C.ar    1  UNL1        0.0795
     20 C          23.5225   73.9740    4.5140 C.ar    1  UNL1        0.0869
     21 O          21.7089   75.6244    2.0723 O.2     1  UNL1       -0.2464
     22 O          23.0530   77.0771    6.0466 O.2     1  UNL1       -0.2670
     23 H          21.9355   77.2579    3.8682 H       1  UNL1        0.1734
     24 O          21.1558   71.7617   -3.0696 O.3     1  UNL1       -0.2703
     25 P          20.1836   70.5070   -3.3407 P.3     1  UNL1        0.2208
     26 O          20.9790   69.1384   -3.0439 O.3     1  UNL1       -0.4371
     27 O          19.0050   70.5947   -2.4510 O.2     1  UNL1       -0.5170
     28 O          19.6999   70.5250   -4.8764 O.3     1  UNL1       -0.2865
     29 C          19.3025   71.7187   -5.5535 C.3     1  UNL1        0.2611
     30 C          17.7852   71.7115   -5.7543 C.3     1  UNL1        0.1582
     31 C          17.4019   70.5236   -6.6422 C.3     1  UNL1        0.1625
     32 C          18.1624   70.6243   -7.9674 C.3     1  UNL1        0.1686
     33 C          19.6656   70.6733   -7.6811 C.3     1  UNL1        0.1760
     34 O          15.9954   70.5513   -6.8954 O.3     1  UNL1       -0.3801
     35 O          17.7677   71.8125   -8.6555 O.3     1  UNL1       -0.3794
     36 O          19.9501   71.7821   -6.8259 O.3     1  UNL1       -0.3263
     37 H          15.6820   69.8255   -7.4523 H       1  UNL1        0.2105
     38 H          18.2116   71.9416   -9.5054 H       1  UNL1        0.2105
     39 C          16.0055   72.2981   -4.1966 C.2     1  UNL1        0.2231
     40 C          15.3211   72.1696   -2.8611 C.3     1  UNL1        0.0946
     41 N          17.1202   71.5862   -4.4548 N.am    1  UNL1       -0.2994
     42 O          15.5533   73.0430   -5.0410 O.2     1  UNL1       -0.2751
     43 H          17.4826   70.9913   -3.7797 H       1  UNL1        0.1496
     44 C          20.4300   70.8340   -8.9965 C.3     1  UNL1        0.1693
     45 O          20.9211   72.1719   -9.1025 O.3     1  UNL1       -0.3794
     46 H          21.4171   72.3463   -9.9141 H       1  UNL1        0.2105
@<TRIPOS>BOND
     1    29    30    1
     2    30    41    1
     3    30    31    1
     4    31    34    1
     5    31    32    1
     6    32    35    1
     7    32    33    1
     8    33    36    1
     9    33    44    1
    10    39    40    1
    11    39    42    2
    12    39    41   am
    13    41    43    1
    14    29    28    1
    15    34    37    1
    16    35    38    1
    17    29    36    1
    18    44    45    1
    19    45    46    1
    20    15     6    1
    21    15    16   ar
    22    16    21    2
    23    16    17   ar
    24    17    23    1
    25    17    18   ar
    26    18    19   ar
    27    19    20   ar
    28    15    20   ar
    29    18    22    2
    30     6     7    1
    31     6    11    1
    32     7     9    1
    33     7     8    1
    34     8    13    1
    35     9    10    1
    36     9    12    1
    37    10     5    1
    38    10    11    1
    39    12    14    1
    40     5     4    1
    41     4     1    1
    42     1     2    1
    43     1    24    1
    44     1     3    2
    45    24    25    1
    46    28    25    1
    47    25    26    1
    48    25    27    2
@<TRIPOS>MOLECULE
UD2
 46 48 0 0 0
SMALL
GASTEIGER

@<TRIPOS>ATOM
      1 P          19.5652   70.4360   -4.0046 P.3     1  UNL1        0.2189
      2 O          18.4614   70.9417   -2.9475 O.3     1  UNL1       -0.4371
      3 O          19.7140   68.9678   -3.8991 O.2     1  UNL1       -0.5170
      4 O          19.0962   70.8222   -5.4961 O.3     1  UNL1       -0.3112
      5 C          17.7289   71.0397   -5.8489 C.3     1  UNL1        0.1811
      6 C          19.0017   73.6754   -7.9393 C.3     1  UNL1        0.2383
      7 C          18.4630   72.6154   -8.9334 C.3     1  UNL1        0.1895
      8 O          17.9892   73.2337  -10.1313 O.3     1  UNL1       -0.3779
      9 C          17.2936   71.9868   -8.1365 C.3     1  UNL1        0.1713
     10 C          17.6126   72.3274   -6.6682 C.3     1  UNL1        0.1764
     11 O          18.8653   73.0303   -6.6545 O.3     1  UNL1       -0.3308
     12 O          16.0511   72.5731   -8.5279 O.3     1  UNL1       -0.3794
     13 H          17.6425   72.6115  -10.7849 H       1  UNL1        0.2106
     14 H          15.8286   72.4400   -9.4592 H       1  UNL1        0.2105
     15 N          20.4074   73.9772   -8.2188 N.ar    1  UNL1       -0.2551
     16 C          21.2951   72.9731   -8.3305 C.ar    1  UNL1        0.3323
     17 N          22.5932   73.2213   -8.5867 N.ar    1  UNL1       -0.2743
     18 C          23.0246   74.4900   -8.7380 C.ar    1  UNL1        0.2626
     19 C          22.1008   75.5566   -8.6240 C.ar    1  UNL1        0.0795
     20 C          20.8047   75.2784   -8.3709 C.ar    1  UNL1        0.0869
     21 O          20.9202   71.8243   -8.1967 O.2     1  UNL1       -0.2464
     22 O          24.1991   74.7160   -8.9704 O.2     1  UNL1       -0.2670
     23 H          23.2202   72.4857   -8.6629 H       1  UNL1        0.1734
     24 O          20.9767   71.1431   -3.6866 O.3     1  UNL1       -0.2703
     25 P          22.1043   70.9301   -2.5570 P.3     1  UNL1        0.2208
     26 O          21.7025   69.6775   -1.6278 O.3     1  UNL1       -0.4371
     27 O          23.4077   70.6652   -3.2045 O.2     1  UNL1       -0.5170
     28 O          22.2141   72.2571   -1.6516 O.3     1  UNL1       -0.2865
     29 C          21.1174   72.7792   -0.8994 C.3     1  UNL1        0.2611
     30 C          21.2261   74.3043   -0.8284 C.3     1  UNL1        0.1582
     31 C          22.5159   74.6819   -0.0934 C.3     1  UNL1        0.1625
     32 C          22.5079   74.0354    1.2945 C.3     1  UNL1        0.1686
     33 C          22.3498   72.5203    1.1416 C.3     1  UNL1        0.1760
     34 O          22.5893   76.1030    0.0421 O.3     1  UNL1       -0.3801
     35 O          21.4175   74.5554    2.0574 O.3     1  UNL1       -0.3794
     36 O          21.1471   72.2385    0.4232 O.3     1  UNL1       -0.3263
     37 H          23.3831   76.4137    0.4988 H       1  UNL1        0.2105
     38 H          21.3506   74.1882    2.9500 H       1  UNL1        0.2105
     39 C          20.2088   75.5679   -2.6467 C.2     1  UNL1        0.2231
     40 C          20.2390   76.1360   -4.0413 C.3     1  UNL1        0.0946
     41 N          21.2561   74.8563   -2.1852 N.am    1  UNL1       -0.2994
     42 O          19.2412   75.7507   -1.9378 O.2     1  UNL1       -0.2751
     43 H          22.0295   74.7091   -2.7519 H       1  UNL1        0.1496
     44 C          22.2809   71.8727    2.5260 C.3     1  UNL1        0.1693
     45 O          20.9278   71.8729    2.9859 O.3     1  UNL1       -0.3794
     46 H          20.8088   71.4764    3.8598 H       1  UNL1        0.2105
@<TRIPOS>BOND
     1    29    30    1
     2    30    41    1
     3    30    31    1
     4    31    34    1
     5    31    32    1
     6    32    35    1
     7    32    33    1
     8    33    36    1
     9    33    44    1
    10    39    40    1
    11    39    42    2
    12    39    41   am
    13    41    43    1
    14    29    28    1
    15    34    37    1
    16    35    38    1
    17    29    36    1
    18    44    45    1
    19    45    46    1
    20    15     6    1
    21    15    16   ar
    22    16    21    2
    23    16    17   ar
    24    17    23    1
    25    17    18   ar
    26    18    19   ar
    27    19    20   ar
    28    15    20   ar
    29    18    22    2
    30     6     7    1
    31     6    11    1
    32     7     9    1
    33     7     8    1
    34     8    13    1
    35     9    10    1
    36     9    12    1
    37    10     5    1
    38    10    11    1
    39    12    14    1
    40     5     4    1
    41     4     1    1
    42     1     2    1
    43     1    24    1
    44     1     3    2
    45    24    25    1
    46    28    25    1
    47    25    26    1
    48    25    27    2
@<TRIPOS>MOLECULE
UD2
 46 48 0 0 0
SMALL
GASTEIGER

@<TRIPOS>ATOM
      1 P          23.1400   72.3991   -3.0721 P.3     1  UNL1        0.2189
      2 O          24.2656   73.3086   -3.7773 O.3     1  UNL1       -0.4371
      3 O          23.4853   70.9699   -3.2365 O.2     1  UNL1       -0.5170
      4 O          23.0666   72.7566   -1.5035 O.3     1  UNL1       -0.3112
      5 C          22.7697   71.7857   -0.4982 C.3     1  UNL1        0.1811
      6 C          20.6698   73.0137    2.1512 C.3     1  UNL1        0.2383
      7 C          20.8925   74.2402    1.2302 C.3     1  UNL1        0.1895
      8 O          19.7623   75.1139    1.2621 O.3     1  UNL1       -0.3779
      9 C          21.0402   73.5789   -0.1621 C.3     1  UNL1        0.1713
     10 C          21.4254   72.1207    0.1527 C.3     1  UNL1        0.1764
     11 O          21.5313   72.0049    1.5805 O.3     1  UNL1       -0.3308
     12 O          19.8012   73.6274   -0.8714 O.3     1  UNL1       -0.3794
     13 H          19.8540   75.8966    0.7021 H       1  UNL1        0.2106
     14 H          19.4811   74.5230   -1.0447 H       1  UNL1        0.2105
     15 N          21.0737   73.3204    3.5252 N.ar    1  UNL1       -0.2551
     16 C          20.1550   73.7458    4.4106 C.ar    1  UNL1        0.3323
     17 N          20.4980   74.0351    5.6798 N.ar    1  UNL1       -0.2743
     18 C          21.7771   73.8997    6.0849 C.ar    1  UNL1        0.2626
     19 C          22.7543   73.4518    5.1637 C.ar    1  UNL1        0.0795
     20 C          22.3815   73.1649    3.8987 C.ar    1  UNL1        0.0869
     21 O          18.9979   73.8724    4.0592 O.2     1  UNL1       -0.2464
     22 O          22.0887   74.1608    7.2335 O.2     1  UNL1       -0.2670
     23 H          19.8233   74.3419    6.3050 H       1  UNL1        0.1734
     24 O          21.7106   72.6883   -3.7551 O.3     1  UNL1       -0.2703
     25 P          21.2422   73.0776   -5.2458 P.3     1  UNL1        0.2208
     26 O          21.1273   74.6791   -5.3706 O.3     1  UNL1       -0.4371
     27 O          22.2351   72.5774   -6.2216 O.2     1  UNL1       -0.5170
     28 O          19.8082   72.4110   -5.5489 O.3     1  UNL1       -0.2865
     29 C          19.6221   71.0034   -5.7084 C.3     1  UNL1        0.2611
     30 C          18.3877   70.7460   -6.5759 C.3     1  UNL1        0.1582
     31 C          17.1497   71.3011   -5.8647 C.3     1  UNL1        0.1625
     32 C          17.0339   70.6516   -4.4830 C.3     1  UNL1        0.1686
     33 C          18.3209   70.9128   -3.6960 C.3     1  UNL1        0.1760
     34 O          15.9827   71.0001   -6.6333 O.3     1  UNL1       -0.3801
     35 O          16.8417   69.2437   -4.6316 O.3     1  UNL1       -0.3794
     36 O          19.4366   70.3996   -4.4265 O.3     1  UNL1       -0.3263
     37 H          15.1600   71.3236   -6.2414 H       1  UNL1        0.2105
     38 H          16.7607   68.7665   -3.7939 H       1  UNL1        0.2105
     39 C          19.4172   70.9246   -8.7773 C.2     1  UNL1        0.2231
     40 C          19.5849   71.6114  -10.1072 C.3     1  UNL1        0.0946
     41 N          18.5504   71.4148   -7.8693 N.am    1  UNL1       -0.2994
     42 O          20.0628   69.9293   -8.5227 O.2     1  UNL1       -0.2751
     43 H          18.0348   72.2111   -8.0720 H       1  UNL1        0.1496
     44 C          18.2372   70.2165   -2.3363 C.3     1  UNL1        0.1693
     45 O          18.4813   68.8180   -2.5007 O.3     1  UNL1       -0.3794
     46 H          18.4438   68.3122   -1.6775 H       1  UNL1        0.2105
@<TRIPOS>BOND
     1    29    30    1
     2    30    41    1
     3    30    31    1
     4    31    34    1
     5    31    32    1
     6    32    35    1
     7    32    33    1
     8    33    36    1
     9    33    44    1
    10    39    40    1
    11    39    42    2
    12    39    41   am
    13    41    43    1
    14    29    28    1
    15    34    37    1
    16    35    38    1
    17    29    36    1
    18    44    45    1
    19    45    46    1
    20    15     6    1
    21    15    16   ar
    22    16    21    2
    23    16    17   ar
    24    17    23    1
    25    17    18   ar
    26    18    19   ar
    27    19    20   ar
    28    15    20   ar
    29    18    22    2
    30     6     7    1
    31     6    11    1
    32     7     9    1
    33     7     8    1
    34     8    13    1
    35     9    10    1
    36     9    12    1
    37    10     5    1
    38    10    11    1
    39    12    14    1
    40     5     4    1
    41     4     1    1
    42     1     2    1
    43     1    24    1
    44     1     3    2
    45    24    25    1
    46    28    25    1
    47    25    26    1
    48    25    27    2
@<TRIPOS>MOLECULE
UD2
 46 48 0 0 0
SMALL
GASTEIGER

@<TRIPOS>ATOM
      1 P          22.3013   70.8093   -2.5528 P.3     1  UNL1        0.2189
      2 O          23.6888   70.3862   -3.2508 O.3     1  UNL1       -0.4371
      3 O          21.6412   69.6074   -1.9974 O.2     1  UNL1       -0.5170
      4 O          22.5957   71.8570   -1.3656 O.3     1  UNL1       -0.3112
      5 C          22.5181   71.5064    0.0173 C.3     1  UNL1        0.1811
      6 C          20.5418   73.1389    2.5403 C.3     1  UNL1        0.2383
      7 C          20.9539   74.2764    1.5716 C.3     1  UNL1        0.1895
      8 O          19.9542   75.2964    1.5280 O.3     1  UNL1       -0.3779
      9 C          21.0439   73.5328    0.2165 C.3     1  UNL1        0.1713
     10 C          21.2169   72.0533    0.6095 C.3     1  UNL1        0.1764
     11 O          21.2702   71.9950    2.0438 O.3     1  UNL1       -0.3308
     12 O          19.8414   73.7144   -0.5331 O.3     1  UNL1       -0.3794
     13 H          20.1666   76.0305    0.9359 H       1  UNL1        0.2106
     14 H          19.6520   74.6355   -0.7571 H       1  UNL1        0.2105
     15 N          20.9496   73.4555    3.9109 N.ar    1  UNL1       -0.2551
     16 C          22.2499   73.3980    4.2494 C.ar    1  UNL1        0.3323
     17 N          22.6531   73.6836    5.5016 N.ar    1  UNL1       -0.2743
     18 C          21.7521   74.0360    6.4411 C.ar    1  UNL1        0.2626
     19 C          20.3801   74.1016    6.0983 C.ar    1  UNL1        0.0795
     20 C          20.0046   73.8141    4.8342 C.ar    1  UNL1        0.0869
     21 O          23.0734   73.0819    3.4126 O.2     1  UNL1       -0.2464
     22 O          22.1158   74.2951    7.5747 O.2     1  UNL1       -0.2670
     23 H          23.5945   73.6360    5.7291 H       1  UNL1        0.1734
     24 O          21.3375   71.4947   -3.6457 O.3     1  UNL1       -0.2703
     25 P          21.4508   72.8099   -4.5680 P.3     1  UNL1        0.2208
     26 O          21.3821   74.1237   -3.6390 O.3     1  UNL1       -0.4371
     27 O          22.7363   72.7905   -5.2996 O.2     1  UNL1       -0.5170
     28 O          20.2334   72.8329   -5.6216 O.3     1  UNL1       -0.2865
     29 C          20.3380   72.3015   -6.9437 C.3     1  UNL1        0.2611
     30 C          20.2033   73.4357   -7.9626 C.3     1  UNL1        0.1582
     31 C          18.8166   74.0717   -7.8254 C.3     1  UNL1        0.1625
     32 C          17.7496   72.9903   -8.0161 C.3     1  UNL1        0.1686
     33 C          17.9789   71.8731   -6.9948 C.3     1  UNL1        0.1760
     34 O          18.6548   75.0834   -8.8222 O.3     1  UNL1       -0.3801
     35 O          17.8419   72.4561   -9.3380 O.3     1  UNL1       -0.3794
     36 O          19.2971   71.3456   -7.1561 O.3     1  UNL1       -0.3263
     37 H          17.7975   75.5298   -8.7935 H       1  UNL1        0.2105
     38 H          17.1942   71.7633   -9.5291 H       1  UNL1        0.2105
     39 C          22.3069   74.5330   -8.5182 C.2     1  UNL1        0.2231
     40 C          23.3658   75.5720   -8.2579 C.3     1  UNL1        0.0946
     41 N          21.2330   74.4465   -7.7086 N.am    1  UNL1       -0.2994
     42 O          22.4203   73.7730   -9.4573 O.2     1  UNL1       -0.2751
     43 H          21.1424   75.0532   -6.9572 H       1  UNL1        0.1496
     44 C          16.9531   70.7602   -7.2177 C.3     1  UNL1        0.1693
     45 O          16.5869   70.1899   -5.9595 O.3     1  UNL1       -0.3794
     46 H          15.9380   69.4759   -6.0246 H       1  UNL1        0.2105
@<TRIPOS>BOND
     1    29    30    1
     2    30    41    1
     3    30    31    1
     4    31    34    1
     5    31    32    1
     6    32    35    1
     7    32    33    1
     8    33    36    1
     9    33    44    1
    10    39    40    1
    11    39    42    2
    12    39    41   am
    13    41    43    1
    14    29    28    1
    15    34    37    1
    16    35    38    1
    17    29    36    1
    18    44    45    1
    19    45    46    1
    20    15     6    1
    21    15    16   ar
    22    16    21    2
    23    16    17   ar
    24    17    23    1
    25    17    18   ar
    26    18    19   ar
    27    19    20   ar
    28    15    20   ar
    29    18    22    2
    30     6     7    1
    31     6    11    1
    32     7     9    1
    33     7     8    1
    34     8    13    1
    35     9    10    1
    36     9    12    1
    37    10     5    1
    38    10    11    1
    39    12    14    1
    40     5     4    1
    41     4     1    1
    42     1     2    1
    43     1    24    1
    44     1     3    2
    45    24    25    1
    46    28    25    1
    47    25    26    1
    48    25    27    2
@<TRIPOS>MOLECULE
UD2
 46 48 0 0 0
SMALL
GASTEIGER

@<TRIPOS>ATOM
      1 P          19.9570   70.9440   -3.7421 P.3     1  UNL1        0.2189
      2 O          19.9347   70.5827   -2.1736 O.3     1  UNL1       -0.4371
      3 O          19.9884   69.6960   -4.5361 O.2     1  UNL1       -0.5170
      4 O          18.6365   71.7861   -4.1175 O.3     1  UNL1       -0.3112
      5 C          17.6102   71.2812   -4.9738 C.3     1  UNL1        0.1811
      6 C          18.8653   73.2840   -7.6849 C.3     1  UNL1        0.2383
      7 C          18.6367   71.8836   -8.3083 C.3     1  UNL1        0.1895
      8 O          18.2923   71.9908   -9.6909 O.3     1  UNL1       -0.3779
      9 C          17.4414   71.3505   -7.4810 C.3     1  UNL1        0.1713
     10 C          17.4681   72.1955   -6.1931 C.3     1  UNL1        0.1764
     11 O          18.6019   73.0732   -6.2807 O.3     1  UNL1       -0.3308
     12 O          16.2162   71.5528   -8.1872 O.3     1  UNL1       -0.3794
     13 H          18.1399   71.1408  -10.1256 H       1  UNL1        0.2106
     14 H          16.1689   71.0904   -9.0348 H       1  UNL1        0.2105
     15 N          20.2480   73.7209   -7.8909 N.ar    1  UNL1       -0.2551
     16 C          21.2580   72.8585   -7.6787 C.ar    1  UNL1        0.3323
     17 N          22.5383   73.2329   -7.8600 N.ar    1  UNL1       -0.2743
     18 C          22.8283   74.4871   -8.2618 C.ar    1  UNL1        0.2626
     19 C          21.7749   75.4050   -8.4899 C.ar    1  UNL1        0.0795
     20 C          20.5005   75.0013   -8.3043 C.ar    1  UNL1        0.0869
     21 O          21.0113   71.7244   -7.3164 O.2     1  UNL1       -0.2464
     22 O          23.9866   74.8271   -8.4267 O.2     1  UNL1       -0.2670
     23 H          23.2545   72.5989   -7.7014 H       1  UNL1        0.1734
     24 O          21.2652   71.8234   -4.0719 O.3     1  UNL1       -0.2703
     25 P          22.7438   71.9080   -3.4399 P.3     1  UNL1        0.2208
     26 O          23.3189   70.4198   -3.2201 O.3     1  UNL1       -0.4371
     27 O          23.6329   72.6486   -4.3615 O.2     1  UNL1       -0.5170
     28 O          22.6794   72.6734   -2.0247 O.3     1  UNL1       -0.2865
     29 C          21.7723   73.7450   -1.7599 C.3     1  UNL1        0.2611
     30 C          22.5432   75.0663   -1.7081 C.3     1  UNL1        0.1582
     31 C          23.5512   75.0146   -0.5558 C.3     1  UNL1        0.1625
     32 C          22.8039   74.7270    0.7493 C.3     1  UNL1        0.1686
     33 C          22.0229   73.4184    0.6027 C.3     1  UNL1        0.1760
     34 O          24.2242   76.2715   -0.4538 O.3     1  UNL1       -0.3801
     35 O          21.8978   75.7962    1.0265 O.3     1  UNL1       -0.3794
     36 O          21.1260   73.5223   -0.5049 O.3     1  UNL1       -0.3263
     37 H          24.8793   76.3099    0.2566 H       1  UNL1        0.2105
     38 H          21.3886   75.6801    1.8409 H       1  UNL1        0.2105
     39 C          23.2564   76.4802   -3.5601 C.2     1  UNL1        0.2231
     40 C          23.9882   76.6878   -4.8601 C.3     1  UNL1        0.0946
     41 N          23.2551   75.2673   -2.9727 N.am    1  UNL1       -0.2994
     42 O          22.6673   77.4053   -3.0410 O.2     1  UNL1       -0.2751
     43 H          23.7251   74.5272   -3.3879 H       1  UNL1        0.1496
     44 C          21.2259   73.1545    1.8817 C.3     1  UNL1        0.1693
     45 O          21.2237   71.7531    2.1618 O.3     1  UNL1       -0.3794
     46 H          20.7355   71.5119    2.9609 H       1  UNL1        0.2105
@<TRIPOS>BOND
     1    29    30    1
     2    30    41    1
     3    30    31    1
     4    31    34    1
     5    31    32    1
     6    32    35    1
     7    32    33    1
     8    33    36    1
     9    33    44    1
    10    39    40    1
    11    39    42    2
    12    39    41   am
    13    41    43    1
    14    29    28    1
    15    34    37    1
    16    35    38    1
    17    29    36    1
    18    44    45    1
    19    45    46    1
    20    15     6    1
    21    15    16   ar
    22    16    21    2
    23    16    17   ar
    24    17    23    1
    25    17    18   ar
    26    18    19   ar
    27    19    20   ar
    28    15    20   ar
    29    18    22    2
    30     6     7    1
    31     6    11    1
    32     7     9    1
    33     7     8    1
    34     8    13    1
    35     9    10    1
    36     9    12    1
    37    10     5    1
    38    10    11    1
    39    12    14    1
    40     5     4    1
    41     4     1    1
    42     1     2    1
    43     1    24    1
    44     1     3    2
    45    24    25    1
    46    28    25    1
    47    25    26    1
    48    25    27    2
@<TRIPOS>MOLECULE
UD2
 46 48 0 0 0
SMALL
GASTEIGER

@<TRIPOS>ATOM
      1 P          20.1010   70.2772   -2.5919 P.3     1  UNL1        0.2189
      2 O          21.6009   70.0555   -3.1328 O.3     1  UNL1       -0.4371
      3 O          19.4107   68.9718   -2.5012 O.2     1  UNL1       -0.5170
      4 O          20.1518   70.9600   -1.1342 O.3     1  UNL1       -0.3112
      5 C          20.6797   72.2681   -0.9068 C.3     1  UNL1        0.1811
      6 C          22.9981   72.3229    1.8426 C.3     1  UNL1        0.2383
      7 C          22.5846   70.8350    1.7110 C.3     1  UNL1        0.1895
      8 O          23.6498   69.9720    2.1142 O.3     1  UNL1       -0.3779
      9 C          22.3140   70.7057    0.1920 C.3     1  UNL1        0.1713
     10 C          22.0675   72.1542   -0.2712 C.3     1  UNL1        0.1764
     11 O          22.1429   72.9939    0.8918 O.3     1  UNL1       -0.3308
     12 O          23.4522   70.1544   -0.4724 O.3     1  UNL1       -0.3794
     13 H          23.4393   69.0306    2.0504 H       1  UNL1        0.2106
     14 H          23.6887   69.2650   -0.1767 H       1  UNL1        0.2105
     15 N          22.7438   72.8108    3.1999 N.ar    1  UNL1       -0.2551
     16 C          21.5324   72.6323    3.7562 C.ar    1  UNL1        0.3323
     17 N          21.2707   73.0706    5.0018 N.ar    1  UNL1       -0.2743
     18 C          22.2275   73.6980    5.7156 C.ar    1  UNL1        0.2626
     19 C          23.5075   73.8917    5.1428 C.ar    1  UNL1        0.0795
     20 C          23.7433   73.4383    3.8936 C.ar    1  UNL1        0.0869
     21 O          20.6602   72.0681    3.1243 O.2     1  UNL1       -0.2464
     22 O          21.9920   74.0948    6.8432 O.2     1  UNL1       -0.2670
     23 H          20.3914   72.9348    5.3874 H       1  UNL1        0.1734
     24 O          19.3010   71.2385   -3.6065 O.3     1  UNL1       -0.2703
     25 P          19.7334   72.4537   -4.5704 P.3     1  UNL1        0.2208
     26 O          19.8050   73.8167   -3.7156 O.3     1  UNL1       -0.4371
     27 O          21.0613   72.1698   -5.1573 O.2     1  UNL1       -0.5170
     28 O          18.6486   72.6155   -5.7494 O.3     1  UNL1       -0.2865
     29 C          18.6196   73.7388   -6.6318 C.3     1  UNL1        0.2611
     30 C          17.2209   73.8770   -7.2376 C.3     1  UNL1        0.1582
     31 C          16.9066   72.6270   -8.0654 C.3     1  UNL1        0.1625
     32 C          17.9877   72.4512   -9.1352 C.3     1  UNL1        0.1686
     33 C          19.3573   72.3679   -8.4561 C.3     1  UNL1        0.1760
     34 O          15.6322   72.7794   -8.6947 O.3     1  UNL1       -0.3801
     35 O          17.9633   73.5673  -10.0269 O.3     1  UNL1       -0.3794
     36 O          19.5739   73.5468   -7.6781 O.3     1  UNL1       -0.3263
     37 H          15.3682   72.0227   -9.2358 H       1  UNL1        0.2105
     38 H          18.6245   73.5229  -10.7318 H       1  UNL1        0.2105
     39 C          15.8145   75.2376   -5.7856 C.2     1  UNL1        0.2231
     40 C          14.7996   75.3793   -4.6817 C.3     1  UNL1        0.0946
     41 N          16.2338   74.0140   -6.1636 N.am    1  UNL1       -0.2994
     42 O          16.2551   76.2256   -6.3351 O.2     1  UNL1       -0.2751
     43 H          15.8825   73.2239   -5.7238 H       1  UNL1        0.1496
     44 C          20.4486   72.2520   -9.5219 C.3     1  UNL1        0.1693
     45 O          21.7258   72.4838   -8.9241 O.3     1  UNL1       -0.3794
     46 H          22.4667   72.4261   -9.5428 H       1  UNL1        0.2105
@<TRIPOS>BOND
     1    29    30    1
     2    30    41    1
     3    30    31    1
     4    31    34    1
     5    31    32    1
     6    32    35    1
     7    32    33    1
     8    33    36    1
     9    33    44    1
    10    39    40    1
    11    39    42    2
    12    39    41   am
    13    41    43    1
    14    29    28    1
    15    34    37    1
    16    35    38    1
    17    29    36    1
    18    44    45    1
    19    45    46    1
    20    15     6    1
    21    15    16   ar
    22    16    21    2
    23    16    17   ar
    24    17    23    1
    25    17    18   ar
    26    18    19   ar
    27    19    20   ar
    28    15    20   ar
    29    18    22    2
    30     6     7    1
    31     6    11    1
    32     7     9    1
    33     7     8    1
    34     8    13    1
    35     9    10    1
    36     9    12    1
    37    10     5    1
    38    10    11    1
    39    12    14    1
    40     5     4    1
    41     4     1    1
    42     1     2    1
    43     1    24    1
    44     1     3    2
    45    24    25    1
    46    28    25    1
    47    25    26    1
    48    25    27    2
@<TRIPOS>MOLECULE
UD2
 46 48 0 0 0
SMALL
GASTEIGER

@<TRIPOS>ATOM
      1 P          21.4586   73.1376   -5.8602 P.3     1  UNL1        0.2189
      2 O          22.6999   72.6715   -6.7730 O.3     1  UNL1       -0.4371
      3 O          20.7682   74.2743   -6.5084 O.2     1  UNL1       -0.5170
      4 O          20.4287   71.9114   -5.6884 O.3     1  UNL1       -0.3112
      5 C          19.7674   71.6187   -4.4562 C.3     1  UNL1        0.1811
      6 C          16.7737   72.1589   -6.3753 C.3     1  UNL1        0.2383
      7 C          17.1381   70.6744   -6.6311 C.3     1  UNL1        0.1895
      8 O          15.9637   69.8929   -6.8590 O.3     1  UNL1       -0.3779
      9 C          17.8192   70.2726   -5.3000 C.3     1  UNL1        0.1713
     10 C          18.2530   71.6141   -4.6790 C.3     1  UNL1        0.1764
     11 O          17.8922   72.6509   -5.6054 O.3     1  UNL1       -0.3308
     12 O          16.8899   69.6030   -4.4463 O.3     1  UNL1       -0.3794
     13 H          16.1398   68.9569   -7.0246 H       1  UNL1        0.2106
     14 H          16.5388   68.7808   -4.8139 H       1  UNL1        0.2105
     15 N          16.6578   72.8871   -7.6408 N.ar    1  UNL1       -0.2551
     16 C          17.6813   72.8741   -8.5132 C.ar    1  UNL1        0.3323
     17 N          17.6023   73.5346   -9.6836 N.ar    1  UNL1       -0.2743
     18 C          16.4866   74.2223  -10.0009 C.ar    1  UNL1        0.2626
     19 C          15.4012   74.2436   -9.0923 C.ar    1  UNL1        0.0795
     20 C          15.5061   73.5691   -7.9281 C.ar    1  UNL1        0.0869
     21 O          18.6934   72.2580   -8.2404 O.2     1  UNL1       -0.2464
     22 O          16.4137   74.8202  -11.0601 O.2     1  UNL1       -0.2670
     23 H          18.3500   73.5159  -10.3007 H       1  UNL1        0.1734
     24 O          21.9975   73.5917   -4.4122 O.3     1  UNL1       -0.2703
     25 P          23.1779   73.0752   -3.4464 P.3     1  UNL1        0.2208
     26 O          23.3888   71.4924   -3.6566 O.3     1  UNL1       -0.4371
     27 O          24.4321   73.7873   -3.7754 O.2     1  UNL1       -0.5170
     28 O          22.7820   73.3652   -1.9128 O.3     1  UNL1       -0.2865
     29 C          21.5555   72.9231   -1.3285 C.3     1  UNL1        0.2611
     30 C          21.1592   73.8705   -0.1936 C.3     1  UNL1        0.1582
     31 C          22.2354   73.8270    0.8955 C.3     1  UNL1        0.1625
     32 C          22.4019   72.3829    1.3764 C.3     1  UNL1        0.1686
     33 C          22.7505   71.4927    0.1806 C.3     1  UNL1        0.1760
     34 O          21.8379   74.6528    1.9925 O.3     1  UNL1       -0.3801
     35 O          21.1818   71.9328    1.9680 O.3     1  UNL1       -0.3794
     36 O          21.7248   71.6029   -0.8083 O.3     1  UNL1       -0.3263
     37 H          22.4747   74.6731    2.7200 H       1  UNL1        0.2105
     38 H          21.2147   71.0229    2.2951 H       1  UNL1        0.2105
     39 C          19.8543   75.8688   -0.6854 C.2     1  UNL1        0.2231
     40 C          19.7345   77.2720   -1.2194 C.3     1  UNL1        0.0946
     41 N          21.0435   75.2354   -0.7134 N.am    1  UNL1       -0.2994
     42 O          18.8797   75.3078   -0.2296 O.2     1  UNL1       -0.2751
     43 H          21.8226   75.6831   -1.0787 H       1  UNL1        0.1496
     44 C          22.8598   70.0383    0.6426 C.3     1  UNL1        0.1693
     45 O          21.5814   69.4078    0.5401 O.3     1  UNL1       -0.3794
     46 H          21.5758   68.4814    0.8173 H       1  UNL1        0.2105
@<TRIPOS>BOND
     1    29    30    1
     2    30    41    1
     3    30    31    1
     4    31    34    1
     5    31    32    1
     6    32    35    1
     7    32    33    1
     8    33    36    1
     9    33    44    1
    10    39    40    1
    11    39    42    2
    12    39    41   am
    13    41    43    1
    14    29    28    1
    15    34    37    1
    16    35    38    1
    17    29    36    1
    18    44    45    1
    19    45    46    1
    20    15     6    1
    21    15    16   ar
    22    16    21    2
    23    16    17   ar
    24    17    23    1
    25    17    18   ar
    26    18    19   ar
    27    19    20   ar
    28    15    20   ar
    29    18    22    2
    30     6     7    1
    31     6    11    1
    32     7     9    1
    33     7     8    1
    34     8    13    1
    35     9    10    1
    36     9    12    1
    37    10     5    1
    38    10    11    1
    39    12    14    1
    40     5     4    1
    41     4     1    1
    42     1     2    1
    43     1    24    1
    44     1     3    2
    45    24    25    1
    46    28    25    1
    47    25    26    1
    48    25    27    2
@<TRIPOS>MOLECULE
UD2
 46 48 0 0 0
SMALL
GASTEIGER

@<TRIPOS>ATOM
      1 P          22.6077   71.9727   -3.3699 P.3     1  UNL1        0.2189
      2 O          22.7683   72.5728   -4.8550 O.3     1  UNL1       -0.4371
      3 O          23.4485   70.7632   -3.2323 O.2     1  UNL1       -0.5170
      4 O          23.0733   73.0755   -2.2924 O.3     1  UNL1       -0.3112
      5 C          22.2356   73.5202   -1.2239 C.3     1  UNL1        0.1811
      6 C          22.7817   73.1945    2.3162 C.3     1  UNL1        0.2383
      7 C          21.2913   72.8194    2.1157 C.3     1  UNL1        0.1895
      8 O          20.8706   71.8626    3.0899 O.3     1  UNL1       -0.3779
      9 C          21.3005   72.1969    0.6980 C.3     1  UNL1        0.1713
     10 C          22.5850   72.7502    0.0520 C.3     1  UNL1        0.1764
     11 O          23.1962   73.6347    1.0047 O.3     1  UNL1       -0.3308
     12 O          21.3549   70.7717    0.7794 O.3     1  UNL1       -0.3794
     13 H          19.9449   71.5967    3.0063 H       1  UNL1        0.2106
     14 H          20.5982   70.3735    1.2303 H       1  UNL1        0.2105
     15 N          22.9139   74.2796    3.2908 N.ar    1  UNL1       -0.2551
     16 C          21.9670   75.2321    3.3601 C.ar    1  UNL1        0.3323
     17 N          22.0628   76.2412    4.2460 N.ar    1  UNL1       -0.2743
     18 C          23.1170   76.3107    5.0842 C.ar    1  UNL1        0.2626
     19 C          24.1207   75.3142    5.0228 C.ar    1  UNL1        0.0795
     20 C          23.9968   74.3117    4.1278 C.ar    1  UNL1        0.0869
     21 O          21.0108   75.1820    2.6107 O.2     1  UNL1       -0.2464
     22 O          23.2047   77.2232    5.8867 O.2     1  UNL1       -0.2670
     23 H          21.3717   76.9203    4.2819 H       1  UNL1        0.1734
     24 O          21.0659   71.5874   -3.1103 O.3     1  UNL1       -0.2703
     25 P          19.8180   71.2598   -4.0738 P.3     1  UNL1        0.2208
     26 O          19.9576   69.7586   -4.6403 O.3     1  UNL1       -0.4371
     27 O          18.5580   71.3824   -3.3085 O.2     1  UNL1       -0.5170
     28 O          19.8026   72.2987   -5.3039 O.3     1  UNL1       -0.2865
     29 C          20.0582   71.9097   -6.6547 C.3     1  UNL1        0.2611
     30 C          20.1542   73.1571   -7.5364 C.3     1  UNL1        0.1582
     31 C          18.8117   73.8944   -7.5109 C.3     1  UNL1        0.1625
     32 C          17.7082   72.9395   -7.9742 C.3     1  UNL1        0.1686
     33 C          17.7065   71.7002   -7.0752 C.3     1  UNL1        0.1760
     34 O          18.8690   75.0204   -8.3895 O.3     1  UNL1       -0.3801
     35 O          17.9514   72.5487   -9.3267 O.3     1  UNL1       -0.3794
     36 O          18.9926   71.0792   -7.1205 O.3     1  UNL1       -0.3263
     37 H          18.0509   75.5351   -8.4224 H       1  UNL1        0.2105
     38 H          17.2898   71.9414   -9.6865 H       1  UNL1        0.2105
     39 C          22.0303   74.6732   -7.8818 C.2     1  UNL1        0.2231
     40 C          23.1124   75.5796   -7.3563 C.3     1  UNL1        0.0946
     41 N          21.2067   74.0384   -7.0246 N.am    1  UNL1       -0.2994
     42 O          21.8996   74.5142   -9.0775 O.2     1  UNL1       -0.2751
     43 H          21.3115   74.1645   -6.0685 H       1  UNL1        0.1496
     44 C          16.6459   70.7142   -7.5684 C.3     1  UNL1        0.1693
     45 O          16.3068   69.8112   -6.5139 O.3     1  UNL1       -0.3794
     46 H          15.6381   69.1561   -6.7561 H       1  UNL1        0.2105
@<TRIPOS>BOND
     1    29    30    1
     2    30    41    1
     3    30    31    1
     4    31    34    1
     5    31    32    1
     6    32    35    1
     7    32    33    1
     8    33    36    1
     9    33    44    1
    10    39    40    1
    11    39    42    2
    12    39    41   am
    13    41    43    1
    14    29    28    1
    15    34    37    1
    16    35    38    1
    17    29    36    1
    18    44    45    1
    19    45    46    1
    20    15     6    1
    21    15    16   ar
    22    16    21    2
    23    16    17   ar
    24    17    23    1
    25    17    18   ar
    26    18    19   ar
    27    19    20   ar
    28    15    20   ar
    29    18    22    2
    30     6     7    1
    31     6    11    1
    32     7     9    1
    33     7     8    1
    34     8    13    1
    35     9    10    1
    36     9    12    1
    37    10     5    1
    38    10    11    1
    39    12    14    1
    40     5     4    1
    41     4     1    1
    42     1     2    1
    43     1    24    1
    44     1     3    2
    45    24    25    1
    46    28    25    1
    47    25    26    1
    48    25    27    2
@<TRIPOS>MOLECULE
UD2
 46 48 0 0 0
SMALL
GASTEIGER

@<TRIPOS>ATOM
      1 P          22.6520   73.4200   -4.8548 P.3     1  UNL1        0.2189
      2 O          22.7615   75.0248   -4.9173 O.3     1  UNL1       -0.4371
      3 O          23.9079   72.8602   -4.3088 O.2     1  UNL1       -0.5170
      4 O          21.4206   73.0030   -3.9042 O.3     1  UNL1       -0.3112
      5 C          21.2920   73.4561   -2.5553 C.3     1  UNL1        0.1811
      6 C          22.2632   72.0692    0.6180 C.3     1  UNL1        0.2383
      7 C          21.2587   71.0429    0.0352 C.3     1  UNL1        0.1895
      8 O          21.5696   69.7191    0.4741 O.3     1  UNL1       -0.3779
      9 C          21.4920   71.1886   -1.4885 C.3     1  UNL1        0.1713
     10 C          22.1451   72.5759   -1.6384 C.3     1  UNL1        0.1764
     11 O          22.2155   73.1595   -0.3278 O.3     1  UNL1       -0.3308
     12 O          22.3733   70.1671   -1.9583 O.3     1  UNL1       -0.3794
     13 H          20.9688   69.0411    0.1364 H       1  UNL1        0.2106
     14 H          22.0374   69.2692   -1.8342 H       1  UNL1        0.2105
     15 N          21.8322   72.5169    1.9442 N.ar    1  UNL1       -0.2551
     16 C          22.3014   71.8973    3.0418 C.ar    1  UNL1        0.3323
     17 N          21.9221   72.2875    4.2731 N.ar    1  UNL1       -0.2743
     18 C          21.0612   73.3143    4.4246 C.ar    1  UNL1        0.2626
     19 C          20.5602   73.9762    3.2779 C.ar    1  UNL1        0.0795
     20 C          20.9607   73.5667    2.0559 C.ar    1  UNL1        0.0869
     21 O          23.0784   70.9700    2.9203 O.2     1  UNL1       -0.2464
     22 O          20.7174   73.6687    5.5385 O.2     1  UNL1       -0.2670
     23 H          22.2691   71.8290    5.0539 H       1  UNL1        0.1734
     24 O          22.4051   72.8404   -6.3368 O.3     1  UNL1       -0.2703
     25 P          21.2645   73.0679   -7.4504 P.3     1  UNL1        0.2208
     26 O          20.8799   74.6306   -7.5126 O.3     1  UNL1       -0.4371
     27 O          21.7698   72.6320   -8.7707 O.2     1  UNL1       -0.5170
     28 O          19.9588   72.2083   -7.0645 O.3     1  UNL1       -0.2865
     29 C          18.9076   72.7166   -6.2412 C.3     1  UNL1        0.2611
     30 C          18.0076   71.5633   -5.7912 C.3     1  UNL1        0.1582
     31 C          17.3637   70.9191   -7.0227 C.3     1  UNL1        0.1625
     32 C          16.5915   71.9886   -7.8001 C.3     1  UNL1        0.1686
     33 C          17.5464   73.1258   -8.1728 C.3     1  UNL1        0.1760
     34 O          16.4646   69.8884   -6.6071 O.3     1  UNL1       -0.3801
     35 O          15.5337   72.4996   -6.9871 O.3     1  UNL1       -0.3794
     36 O          18.1344   73.6605   -6.9852 O.3     1  UNL1       -0.3263
     37 H          16.0209   69.4360   -7.3375 H       1  UNL1        0.2105
     38 H          15.0017   73.1838   -7.4170 H       1  UNL1        0.2105
     39 C          18.3020   69.9349   -4.0024 C.2     1  UNL1        0.2231
     40 C          19.1263   68.9086   -3.2706 C.3     1  UNL1        0.0946
     41 N          18.8102   70.5652   -5.0797 N.am    1  UNL1       -0.2994
     42 O          17.1795   70.1949   -3.6222 O.2     1  UNL1       -0.2751
     43 H          19.7080   70.3584   -5.3835 H       1  UNL1        0.1496
     44 C          16.7698   74.2265   -8.8980 C.3     1  UNL1        0.1693
     45 O          16.9131   74.0603  -10.3101 O.3     1  UNL1       -0.3794
     46 H          16.4457   74.7250  -10.8344 H       1  UNL1        0.2105
@<TRIPOS>BOND
     1    29    30    1
     2    30    41    1
     3    30    31    1
     4    31    34    1
     5    31    32    1
     6    32    35    1
     7    32    33    1
     8    33    36    1
     9    33    44    1
    10    39    40    1
    11    39    42    2
    12    39    41   am
    13    41    43    1
    14    29    28    1
    15    34    37    1
    16    35    38    1
    17    29    36    1
    18    44    45    1
    19    45    46    1
    20    15     6    1
    21    15    16   ar
    22    16    21    2
    23    16    17   ar
    24    17    23    1
    25    17    18   ar
    26    18    19   ar
    27    19    20   ar
    28    15    20   ar
    29    18    22    2
    30     6     7    1
    31     6    11    1
    32     7     9    1
    33     7     8    1
    34     8    13    1
    35     9    10    1
    36     9    12    1
    37    10     5    1
    38    10    11    1
    39    12    14    1
    40     5     4    1
    41     4     1    1
    42     1     2    1
    43     1    24    1
    44     1     3    2
    45    24    25    1
    46    28    25    1
    47    25    26    1
    48    25    27    2
