@<TRIPOS>MOLECULE
*****
 43 45 0 0 0
SMALL
GASTEIGER

@<TRIPOS>ATOM
      1 P          20.9129   71.7209   -2.1860 P.3     1  UNL1        0.2189
      2 O          20.1877   73.0863   -2.6642 O.co2   1  UNL1       -0.4371
      3 O          22.1489   71.3572   -2.9552 O.2     1  UNL1       -0.5170
      4 O          19.7248   70.6227   -2.2052 O.3     1  UNL1       -0.3112
      5 C          19.2262   70.1878   -3.4569 C.3     1  UNL1        0.1811
      6 O          17.5962   71.3262   -4.8078 O.3     1  UNL1       -0.3308
      7 O          15.5243   69.8351   -3.2344 O.3     1  UNL1       -0.3794
      8 O          15.6515   68.4082   -5.5547 O.3     1  UNL1       -0.3779
      9 C          16.8150   69.4035   -3.6658 C.3     1  UNL1        0.1713
     10 C          16.8030   69.1205   -5.1531 C.3     1  UNL1        0.1895
     11 C          17.7623   70.5921   -3.5754 C.3     1  UNL1        0.1764
     12 C          16.8595   70.5201   -5.7410 C.3     1  UNL1        0.2383
     13 H          14.9015   69.0925   -3.2835 H       1  UNL1        0.2105
     14 H          15.6624   67.5240   -5.1546 H       1  UNL1        0.2106
     15 O          15.5314   70.5658   -8.2331 O.2     1  UNL1       -0.2464
     16 O          19.5102   70.6484  -10.5582 O.2     1  UNL1       -0.2670
     17 N          17.5239   70.5538   -7.0132 N.ar    1  UNL1       -0.2551
     18 N          17.5143   70.6059   -9.3887 N.ar    1  UNL1       -0.2743
     19 C          16.7635   70.5745   -8.2062 C.ar    1  UNL1        0.3323
     20 C          18.9122   70.5676   -7.0704 C.ar    1  UNL1        0.0869
     21 C          19.6139   70.5977   -8.2051 C.ar    1  UNL1        0.0795
     22 C          18.8956   70.6201   -9.4962 C.ar    1  UNL1        0.2626
     23 H          17.0069   70.6187  -10.2324 H       1  UNL1        0.1734
     24 O          21.1515   71.9706   -0.6069 O.3     1  UNL1       -0.2703
     25 P          22.0960   71.2041    0.4580 P.3     1  UNL1        0.2208
     26 O          23.5232   71.1265   -0.3021 O.co2   1  UNL1       -0.4371
     27 O          21.5628   69.8752    0.9094 O.2     1  UNL1       -0.5170
     28 O          22.3246   72.2720    1.6453 O.3     1  UNL1       -0.2858
     29 O          24.1495   71.4634    2.9200 O.3     1  UNL1       -0.3226
     30 O          23.2955   75.0215    4.8379 O.3     1  UNL1       -0.3794
     31 O          21.1385   73.2576    3.9600 O.3     1  UNL1       -0.3775
     32 O          25.6047   74.8277    3.0827 O.3     1  UNL1       -0.3792
     33 C          23.3904   74.1300    3.7270 C.3     1  UNL1        0.1718
     34 C          22.5161   72.9017    3.9804 C.3     1  UNL1        0.1968
     35 C          24.8563   73.7178    3.5753 C.3     1  UNL1        0.1723
     36 C          22.7676   71.8239    2.9250 C.3     1  UNL1        0.2706
     37 C          25.0098   72.5545    2.5998 C.3     1  UNL1        0.1830
     38 H          22.3724   75.2970    4.9538 H       1  UNL1        0.2105
     39 H          20.9718   73.9414    4.6272 H       1  UNL1        0.2106
     40 H          25.5153   75.5751    3.6944 H       1  UNL1        0.2106
     41 O          27.2157   72.7829    3.3635 O.co2   1  UNL1       -0.5466
     42 O          26.6897   70.8554    2.2647 O.co2   1  UNL1       -0.5466
     43 C          26.3720   71.9498    2.7054 C.2     1  UNL1        0.0799
@<TRIPOS>UNITY_ATOM_ATTR
2 1
charge -1
26 1
charge -1
41 1
charge -1
@<TRIPOS>BOND
     1     1     4    1
     2     1    24    1
     3     1     2    1
     4     1     3    2
     5    25    28    1
     6    25    24    1
     7    25    26    1
     8    25    27    2
     9     6    11    1
    10     6    12    1
    11    29    36    1
    12    29    37    1
    13     7     9    1
    14     7    13    1
    15     8    10    1
    16     8    14    1
    17     4     5    1
    18    28    36    1
    19    30    33    1
    20    30    38    1
    21    31    34    1
    22    31    39    1
    23    32    35    1
    24    32    40    1
    25    41    43   ar
    26    15    19    2
    27    42    43   ar
    28    16    22    2
    29    17    12    1
    30    17    19   ar
    31    17    20   ar
    32    18    19   ar
    33    18    22   ar
    34    18    23    1
    35     9    10    1
    36     9    11    1
    37    10    12    1
    38    11     5    1
    39    33    34    1
    40    33    35    1
    41    34    36    1
    42    35    37    1
    43    37    43    1
    44    20    21   ar
    45    21    22   ar
@<TRIPOS>MOLECULE
*****
 43 45 0 0 0
SMALL
GASTEIGER

@<TRIPOS>ATOM
      1 P          22.5131   72.1199   -2.8276 P.3     1  UNL1        0.2189
      2 O          23.3280   73.3450   -3.5014 O.co2   1  UNL1       -0.4371
      3 O          23.1767   70.7789   -2.9418 O.2     1  UNL1       -0.5170
      4 O          21.0362   72.2308   -3.4790 O.3     1  UNL1       -0.3112
      5 C          20.3467   71.0362   -3.7983 C.3     1  UNL1        0.1811
      6 O          18.3722   71.7868   -4.9453 O.3     1  UNL1       -0.3308
      7 O          16.8177   70.3903   -2.7947 O.3     1  UNL1       -0.3794
      8 O          16.6893   68.6221   -4.8666 O.3     1  UNL1       -0.3779
      9 C          18.0502   70.0130   -3.4088 C.3     1  UNL1        0.1713
     10 C          17.8006   69.4916   -4.8081 C.3     1  UNL1        0.1895
     11 C          18.8480   71.2814   -3.6790 C.3     1  UNL1        0.1764
     12 C          17.5797   70.7762   -5.5886 C.3     1  UNL1        0.2383
     13 H          16.2905   69.5963   -2.6125 H       1  UNL1        0.2105
     14 H          16.8794   67.8195   -4.3550 H       1  UNL1        0.2106
     15 O          15.8163   70.3485   -7.7529 O.2     1  UNL1       -0.2464
     16 O          19.2699   70.3553  -10.8052 O.2     1  UNL1       -0.2670
     17 N          17.9912   70.6623   -6.9592 N.ar    1  UNL1       -0.2551
     18 N          17.5382   70.3513   -9.2710 N.ar    1  UNL1       -0.2743
     19 C          17.0253   70.4477   -7.9707 C.ar    1  UNL1        0.3323
     20 C          19.3369   70.7646   -7.2901 C.ar    1  UNL1        0.0869
     21 C          19.8106   70.6708   -8.5341 C.ar    1  UNL1        0.0795
     22 C          18.8677   70.4458   -9.6493 C.ar    1  UNL1        0.2626
     23 H          16.8850   70.1999   -9.9919 H       1  UNL1        0.1734
     24 O          22.2807   72.6293   -1.3112 O.3     1  UNL1       -0.2703
     25 P          21.0452   72.4033   -0.2933 P.3     1  UNL1        0.2208
     26 O          20.9051   70.7918   -0.2337 O.co2   1  UNL1       -0.4371
     27 O          19.7854   73.1196   -0.6854 O.2     1  UNL1       -0.5170
     28 O          21.6268   72.8153    1.1540 O.3     1  UNL1       -0.2858
     29 O          23.1350   71.1454    1.8929 O.3     1  UNL1       -0.3226
     30 O          23.1255   73.7487    5.1008 O.3     1  UNL1       -0.3794
     31 O          20.6323   73.0674    3.7392 O.3     1  UNL1       -0.3775
     32 O          25.3822   73.6987    3.2689 O.3     1  UNL1       -0.3792
     33 C          23.0388   73.3746    3.7259 C.3     1  UNL1        0.1718
     34 C          21.8738   72.4038    3.5321 C.3     1  UNL1        0.1968
     35 C          24.3588   72.7072    3.3332 C.3     1  UNL1        0.1723
     36 C          21.8894   71.8042    2.1253 C.3     1  UNL1        0.2706
     37 C          24.2547   72.0246    1.9724 C.3     1  UNL1        0.1830
     38 H          22.2976   74.1750    5.3729 H       1  UNL1        0.2105
     39 H          20.6156   73.4506    4.6299 H       1  UNL1        0.2106
     40 H          25.4585   74.1408    4.1288 H       1  UNL1        0.2106
     41 O          25.1952   70.3137    0.6725 O.co2   1  UNL1       -0.5466
     42 O          26.4277   71.0814    2.4304 O.co2   1  UNL1       -0.5466
     43 C          25.4152   71.1110    1.7471 C.2     1  UNL1        0.0799
@<TRIPOS>UNITY_ATOM_ATTR
2 1
charge -1
26 1
charge -1
41 1
charge -1
@<TRIPOS>BOND
     1     1     4    1
     2     1    24    1
     3     1     2    1
     4     1     3    2
     5    25    28    1
     6    25    24    1
     7    25    26    1
     8    25    27    2
     9     6    11    1
    10     6    12    1
    11    29    36    1
    12    29    37    1
    13     7     9    1
    14     7    13    1
    15     8    10    1
    16     8    14    1
    17     4     5    1
    18    28    36    1
    19    30    33    1
    20    30    38    1
    21    31    34    1
    22    31    39    1
    23    32    35    1
    24    32    40    1
    25    41    43   ar
    26    15    19    2
    27    42    43   ar
    28    16    22    2
    29    17    12    1
    30    17    19   ar
    31    17    20   ar
    32    18    19   ar
    33    18    22   ar
    34    18    23    1
    35     9    10    1
    36     9    11    1
    37    10    12    1
    38    11     5    1
    39    33    34    1
    40    33    35    1
    41    34    36    1
    42    35    37    1
    43    37    43    1
    44    20    21   ar
    45    21    22   ar
@<TRIPOS>MOLECULE
*****
 43 45 0 0 0
SMALL
GASTEIGER

@<TRIPOS>ATOM
      1 P          22.8439   71.4002   -2.3102 P.3     1  UNL1        0.2189
      2 O          22.3996   72.8882   -2.7655 O.co2   1  UNL1       -0.4371
      3 O          24.1007   70.8901   -2.9520 O.2     1  UNL1       -0.5170
      4 O          21.5173   70.5067   -2.5550 O.3     1  UNL1       -0.3112
      5 C          20.8424   70.6238   -3.7941 C.3     1  UNL1        0.1811
      6 O          18.9068   71.6876   -4.7424 O.3     1  UNL1       -0.3308
      7 O          17.3518   70.4322   -2.5069 O.3     1  UNL1       -0.3794
      8 O          16.8049   68.7861   -4.6110 O.3     1  UNL1       -0.3779
      9 C          18.4639   69.9135   -3.2367 C.3     1  UNL1        0.1713
     10 C          18.0292   69.4901   -4.6238 C.3     1  UNL1        0.1895
     11 C          19.4084   71.0692   -3.5378 C.3     1  UNL1        0.1764
     12 C          17.9292   70.8240   -5.3439 C.3     1  UNL1        0.2383
     13 H          16.7342   69.7121   -2.3030 H       1  UNL1        0.2105
     14 H          16.9208   67.9445   -4.1418 H       1  UNL1        0.2106
     15 O          16.0011   70.1778   -7.3038 O.2     1  UNL1       -0.2464
     16 O          19.1071   70.4177  -10.7006 O.2     1  UNL1       -0.2670
     17 N          18.2068   70.7110   -6.7478 N.ar    1  UNL1       -0.2551
     18 N          17.5501   70.2969   -8.9936 N.ar    1  UNL1       -0.2743
     19 C          17.1666   70.3813   -7.6487 C.ar    1  UNL1        0.3323
     20 C          19.4958   70.9271   -7.2196 C.ar    1  UNL1        0.0869
     21 C          19.8461   70.8432   -8.5045 C.ar    1  UNL1        0.0795
     22 C          18.8190   70.5025   -9.5107 C.ar    1  UNL1        0.2626
     23 H          16.8435   70.0667   -9.6394 H       1  UNL1        0.1734
     24 O          22.9103   71.5183   -0.6995 O.3     1  UNL1       -0.2703
     25 P          21.7356   71.6013    0.4081 P.3     1  UNL1        0.2208
     26 O          21.4920   70.0512    0.8058 O.co2   1  UNL1       -0.4371
     27 O          20.5026   72.3220   -0.0548 O.2     1  UNL1       -0.5170
     28 O          22.4418   72.2485    1.7061 O.3     1  UNL1       -0.2858
     29 O          21.2411   74.1558    2.4340 O.3     1  UNL1       -0.3226
     30 O          24.4681   74.1588    5.0137 O.3     1  UNL1       -0.3794
     31 O          24.8413   73.5743    2.1758 O.3     1  UNL1       -0.3775
     32 O          21.8578   73.2793    5.9431 O.3     1  UNL1       -0.3792
     33 C          23.4693   73.5757    4.1768 C.3     1  UNL1        0.1718
     34 C          23.6409   74.0839    2.7450 C.3     1  UNL1        0.1968
     35 C          22.0986   73.9799    4.7243 C.3     1  UNL1        0.1723
     36 C          22.4582   73.6654    1.8705 C.3     1  UNL1        0.2706
     37 C          20.9835   73.6420    3.7390 C.3     1  UNL1        0.1830
     38 H          25.3479   73.9156    4.6850 H       1  UNL1        0.2105
     39 H          25.5960   73.8359    2.7259 H       1  UNL1        0.2106
     40 H          22.5607   73.4856    6.5790 H       1  UNL1        0.2106
     41 O          19.2296   75.0570    3.0884 O.co2   1  UNL1       -0.5466
     42 O          19.1712   74.2387    5.2158 O.co2   1  UNL1       -0.5466
     43 C          19.7113   74.3248    4.1232 C.2     1  UNL1        0.0799
@<TRIPOS>UNITY_ATOM_ATTR
2 1
charge -1
26 1
charge -1
41 1
charge -1
@<TRIPOS>BOND
     1     1     4    1
     2     1    24    1
     3     1     2    1
     4     1     3    2
     5    25    28    1
     6    25    24    1
     7    25    26    1
     8    25    27    2
     9     6    11    1
    10     6    12    1
    11    29    36    1
    12    29    37    1
    13     7     9    1
    14     7    13    1
    15     8    10    1
    16     8    14    1
    17     4     5    1
    18    28    36    1
    19    30    33    1
    20    30    38    1
    21    31    34    1
    22    31    39    1
    23    32    35    1
    24    32    40    1
    25    41    43   ar
    26    15    19    2
    27    42    43   ar
    28    16    22    2
    29    17    12    1
    30    17    19   ar
    31    17    20   ar
    32    18    19   ar
    33    18    22   ar
    34    18    23    1
    35     9    10    1
    36     9    11    1
    37    10    12    1
    38    11     5    1
    39    33    34    1
    40    33    35    1
    41    34    36    1
    42    35    37    1
    43    37    43    1
    44    20    21   ar
    45    21    22   ar
@<TRIPOS>MOLECULE
*****
 43 45 0 0 0
SMALL
GASTEIGER

@<TRIPOS>ATOM
      1 P          21.9416   72.4781   -5.8974 P.3     1  UNL1        0.2189
      2 O          21.3298   73.9167   -5.4790 O.co2   1  UNL1       -0.4371
      3 O          23.1017   72.5352   -6.8475 O.2     1  UNL1       -0.5170
      4 O          20.6542   71.6426   -6.4098 O.3     1  UNL1       -0.3112
      5 C          20.0785   71.9852   -7.6571 C.3     1  UNL1        0.1811
      6 O          18.8940   69.9477   -7.1849 O.3     1  UNL1       -0.3308
      7 O          18.0815   69.9698  -10.0712 O.3     1  UNL1       -0.3794
      8 O          15.8526   70.9167   -8.8175 O.3     1  UNL1       -0.3779
      9 C          18.2535   71.0658   -9.1725 C.3     1  UNL1        0.1713
     10 C          17.1015   71.1252   -8.1918 C.3     1  UNL1        0.1895
     11 C          19.4310   70.7460   -8.2617 C.3     1  UNL1        0.1764
     12 C          17.4595   70.0164   -7.2171 C.3     1  UNL1        0.2383
     13 H          17.3344   70.1510  -10.6635 H       1  UNL1        0.2105
     14 H          15.6705   71.6492   -9.4277 H       1  UNL1        0.2106
     15 O          16.3054   68.0653   -5.5325 O.2     1  UNL1       -0.2464
     16 O          15.6336   71.1214   -2.1483 O.2     1  UNL1       -0.2670
     17 N          16.9746   70.2749   -5.8908 N.ar    1  UNL1       -0.2551
     18 N          15.9710   69.5895   -3.8490 N.ar    1  UNL1       -0.2743
     19 C          16.4122   69.2245   -5.1277 C.ar    1  UNL1        0.3323
     20 C          17.0599   71.5556   -5.3585 C.ar    1  UNL1        0.0869
     21 C          16.6351   71.8883   -4.1380 C.ar    1  UNL1        0.0795
     22 C          16.0339   70.8495   -3.2761 C.ar    1  UNL1        0.2626
     23 H          15.5738   68.8755   -3.2996 H       1  UNL1        0.1734
     24 O          22.2731   71.7958   -4.4701 O.3     1  UNL1       -0.2703
     25 P          23.4939   72.0345   -3.4375 P.3     1  UNL1        0.2208
     26 O          24.4343   73.0975   -4.2160 O.co2   1  UNL1       -0.4371
     27 O          24.1989   70.7777   -3.0163 O.2     1  UNL1       -0.5170
     28 O          22.8451   72.8768   -2.2243 O.3     1  UNL1       -0.2858
     29 O          21.3388   71.8771   -0.6943 O.3     1  UNL1       -0.3226
     30 O          20.5192   75.8933   -0.1782 O.3     1  UNL1       -0.3794
     31 O          20.9361   74.7990   -2.8546 O.3     1  UNL1       -0.3775
     32 O          22.0773   74.4548    1.8101 O.3     1  UNL1       -0.3792
     33 C          21.3333   74.7554   -0.4616 C.3     1  UNL1        0.1718
     34 C          20.7741   74.0162   -1.6775 C.3     1  UNL1        0.1968
     35 C          21.3179   73.8448    0.7682 C.3     1  UNL1        0.1723
     36 C          21.4779   72.6725   -1.8723 C.3     1  UNL1        0.2706
     37 C          21.9241   72.4792    0.4580 C.3     1  UNL1        0.1830
     38 H          20.5138   76.4865   -0.9460 H       1  UNL1        0.2105
     39 H          20.4922   75.6532   -2.7380 H       1  UNL1        0.2106
     40 H          21.7019   75.3249    2.0171 H       1  UNL1        0.2106
     41 O          21.4827   70.2496    1.0370 O.co2   1  UNL1       -0.5466
     42 O          21.4889   71.7812    2.7262 O.co2   1  UNL1       -0.5466
     43 C          21.6113   71.5011    1.5432 C.2     1  UNL1        0.0799
@<TRIPOS>UNITY_ATOM_ATTR
2 1
charge -1
26 1
charge -1
41 1
charge -1
@<TRIPOS>BOND
     1     1     4    1
     2     1    24    1
     3     1     2    1
     4     1     3    2
     5    25    28    1
     6    25    24    1
     7    25    26    1
     8    25    27    2
     9     6    11    1
    10     6    12    1
    11    29    36    1
    12    29    37    1
    13     7     9    1
    14     7    13    1
    15     8    10    1
    16     8    14    1
    17     4     5    1
    18    28    36    1
    19    30    33    1
    20    30    38    1
    21    31    34    1
    22    31    39    1
    23    32    35    1
    24    32    40    1
    25    41    43   ar
    26    15    19    2
    27    42    43   ar
    28    16    22    2
    29    17    12    1
    30    17    19   ar
    31    17    20   ar
    32    18    19   ar
    33    18    22   ar
    34    18    23    1
    35     9    10    1
    36     9    11    1
    37    10    12    1
    38    11     5    1
    39    33    34    1
    40    33    35    1
    41    34    36    1
    42    35    37    1
    43    37    43    1
    44    20    21   ar
    45    21    22   ar
@<TRIPOS>MOLECULE
*****
 43 45 0 0 0
SMALL
GASTEIGER

@<TRIPOS>ATOM
      1 P          23.0438   72.1217   -3.2069 P.3     1  UNL1        0.2189
      2 O          24.1850   72.5327   -4.2782 O.co2   1  UNL1       -0.4371
      3 O          23.4421   71.0477   -2.2376 O.2     1  UNL1       -0.5170
      4 O          21.7500   71.7970   -4.1228 O.3     1  UNL1       -0.3112
      5 C          20.9615   70.6656   -3.8023 C.3     1  UNL1        0.1811
      6 O          19.0174   71.7327   -4.7292 O.3     1  UNL1       -0.3308
      7 O          17.4880   70.4942   -2.4668 O.3     1  UNL1       -0.3794
      8 O          16.9060   68.8403   -4.5554 O.3     1  UNL1       -0.3779
      9 C          18.5881   69.9675   -3.2092 C.3     1  UNL1        0.1713
     10 C          18.1327   69.5393   -4.5882 C.3     1  UNL1        0.1895
     11 C          19.5330   71.1179   -3.5286 C.3     1  UNL1        0.1764
     12 C          18.0282   70.8702   -5.3132 C.3     1  UNL1        0.2383
     13 H          16.8704   69.7774   -2.2511 H       1  UNL1        0.2105
     14 H          17.0249   68.0005   -4.0838 H       1  UNL1        0.2106
     15 O          16.0730   70.2132   -7.2424 O.2     1  UNL1       -0.2464
     16 O          19.1312   70.4345  -10.6836 O.2     1  UNL1       -0.2670
     17 N          18.2862   70.7495   -6.7202 N.ar    1  UNL1       -0.2551
     18 N          17.5982   70.3230   -8.9543 N.ar    1  UNL1       -0.2743
     19 C          17.2336   70.4148   -7.6046 C.ar    1  UNL1        0.3323
     20 C          19.5685   70.9631   -7.2112 C.ar    1  UNL1        0.0869
     21 C          19.9007   70.8721   -8.5004 C.ar    1  UNL1        0.0795
     22 C          18.8597   70.5258   -9.4902 C.ar    1  UNL1        0.2626
     23 H          16.8827   70.0892   -9.5889 H       1  UNL1        0.1734
     24 O          22.6603   73.5360   -2.5247 O.3     1  UNL1       -0.2703
     25 P          23.5887   74.6785   -1.8566 P.3     1  UNL1        0.2208
     26 O          22.5110   75.7333   -1.2679 O.co2   1  UNL1       -0.4371
     27 O          24.5948   75.2807   -2.7942 O.2     1  UNL1       -0.5170
     28 O          24.2261   73.9765   -0.5515 O.3     1  UNL1       -0.2858
     29 O          22.5786   73.2402    0.9824 O.3     1  UNL1       -0.3226
     30 O          26.0602   72.5742    3.1043 O.3     1  UNL1       -0.3794
     31 O          25.7198   75.0232    1.5484 O.3     1  UNL1       -0.3775
     32 O          24.6379   70.3446    1.8972 O.3     1  UNL1       -0.3792
     33 C          25.2448   72.6759    1.9369 C.3     1  UNL1        0.1718
     34 C          24.6804   74.0927    1.8289 C.3     1  UNL1        0.1968
     35 C          24.1086   71.6586    2.0635 C.3     1  UNL1        0.1723
     36 C          23.6244   74.1783    0.7260 C.3     1  UNL1        0.2706
     37 C          23.0339   71.8892    1.0051 C.3     1  UNL1        0.1830
     38 H          26.7892   73.2116    3.0463 H       1  UNL1        0.2105
     39 H          26.3935   74.9741    2.2441 H       1  UNL1        0.2106
     40 H          25.3233   70.1852    2.5648 H       1  UNL1        0.2106
     41 O          20.9402   71.8825    2.0624 O.co2   1  UNL1       -0.5466
     42 O          21.5706   69.9708    0.9913 O.co2   1  UNL1       -0.5466
     43 C          21.7939   71.1227    1.3324 C.2     1  UNL1        0.0799
@<TRIPOS>UNITY_ATOM_ATTR
2 1
charge -1
26 1
charge -1
41 1
charge -1
@<TRIPOS>BOND
     1     1     4    1
     2     1    24    1
     3     1     2    1
     4     1     3    2
     5    25    28    1
     6    25    24    1
     7    25    26    1
     8    25    27    2
     9     6    11    1
    10     6    12    1
    11    29    36    1
    12    29    37    1
    13     7     9    1
    14     7    13    1
    15     8    10    1
    16     8    14    1
    17     4     5    1
    18    28    36    1
    19    30    33    1
    20    30    38    1
    21    31    34    1
    22    31    39    1
    23    32    35    1
    24    32    40    1
    25    41    43   ar
    26    15    19    2
    27    42    43   ar
    28    16    22    2
    29    17    12    1
    30    17    19   ar
    31    17    20   ar
    32    18    19   ar
    33    18    22   ar
    34    18    23    1
    35     9    10    1
    36     9    11    1
    37    10    12    1
    38    11     5    1
    39    33    34    1
    40    33    35    1
    41    34    36    1
    42    35    37    1
    43    37    43    1
    44    20    21   ar
    45    21    22   ar
@<TRIPOS>MOLECULE
*****
 43 45 0 0 0
SMALL
GASTEIGER

@<TRIPOS>ATOM
      1 P          23.4981   73.5789   -4.1633 P.3     1  UNL1        0.2189
      2 O          22.7212   74.9777   -4.4056 O.co2   1  UNL1       -0.4371
      3 O          24.9903   73.6936   -4.0535 O.2     1  UNL1       -0.5170
      4 O          22.9523   72.6211   -5.3477 O.3     1  UNL1       -0.3112
      5 C          21.5748   72.2951   -5.3730 C.3     1  UNL1        0.1811
      6 O          20.4968   70.3506   -6.2864 O.3     1  UNL1       -0.3308
      7 O          20.6518   71.7399   -8.9392 O.3     1  UNL1       -0.3794
      8 O          18.0611   72.1581   -8.1980 O.3     1  UNL1       -0.3779
      9 C          20.4244   72.2916   -7.6421 C.3     1  UNL1        0.1713
     10 C          19.0190   71.9745   -7.1767 C.3     1  UNL1        0.1895
     11 C          21.2732   71.5140   -6.6455 C.3     1  UNL1        0.1764
     12 C          19.1482   70.5221   -6.7503 C.3     1  UNL1        0.2383
     13 H          20.1200   72.2206   -9.5932 H       1  UNL1        0.2105
     14 H          18.0162   73.0985   -8.4340 H       1  UNL1        0.2106
     15 O          16.4467   69.7933   -7.1337 O.2     1  UNL1       -0.2464
     16 O          15.7669   69.2283   -2.6101 O.2     1  UNL1       -0.2670
     17 N          18.2427   70.1796   -5.6903 N.ar    1  UNL1       -0.2551
     18 N          16.1104   69.5136   -4.8803 N.ar    1  UNL1       -0.2743
     19 C          16.9053   69.8281   -5.9903 C.ar    1  UNL1        0.3323
     20 C          18.6816   70.1924   -4.3719 C.ar    1  UNL1        0.0869
     21 C          17.9122   69.8900   -3.3243 C.ar    1  UNL1        0.0795
     22 C          16.5017   69.5127   -3.5512 C.ar    1  UNL1        0.2626
     23 H          15.1749   69.2677   -5.0640 H       1  UNL1        0.1734
     24 O          22.7701   72.9823   -2.8491 O.3     1  UNL1       -0.2703
     25 P          22.8796   71.5333   -2.1407 P.3     1  UNL1        0.2208
     26 O          24.2135   70.8980   -2.8022 O.co2   1  UNL1       -0.4371
     27 O          21.6515   70.6822   -2.2864 O.2     1  UNL1       -0.5170
     28 O          23.2948   71.8539   -0.6151 O.3     1  UNL1       -0.2858
     29 O          24.6512   70.8491    1.0461 O.3     1  UNL1       -0.3226
     30 O          21.3077   71.9184    3.2245 O.3     1  UNL1       -0.3794
     31 O          21.0288   70.7505    0.5613 O.3     1  UNL1       -0.3775
     32 O          23.7546   73.4717    3.4503 O.3     1  UNL1       -0.3792
     33 C          22.2824   72.0413    2.1887 C.3     1  UNL1        0.1718
     34 C          22.2441   70.7980    1.2998 C.3     1  UNL1        0.1968
     35 C          23.6566   72.1830    2.8469 C.3     1  UNL1        0.1723
     36 C          23.4210   70.7871    0.3233 C.3     1  UNL1        0.2706
     37 C          24.7811   72.0357    1.8259 C.3     1  UNL1        0.1830
     38 H          20.4260   71.8271    2.8299 H       1  UNL1        0.2105
     39 H          20.2777   70.7574    1.1746 H       1  UNL1        0.2106
     40 H          23.0443   73.5783    4.1022 H       1  UNL1        0.2106
     41 O          26.4571   72.9712    3.1741 O.co2   1  UNL1       -0.5466
     42 O          26.7604   70.8206    2.4797 O.co2   1  UNL1       -0.5466
     43 C          26.0963   71.8458    2.5090 C.2     1  UNL1        0.0799
@<TRIPOS>UNITY_ATOM_ATTR
2 1
charge -1
26 1
charge -1
41 1
charge -1
@<TRIPOS>BOND
     1     1     4    1
     2     1    24    1
     3     1     2    1
     4     1     3    2
     5    25    28    1
     6    25    24    1
     7    25    26    1
     8    25    27    2
     9     6    11    1
    10     6    12    1
    11    29    36    1
    12    29    37    1
    13     7     9    1
    14     7    13    1
    15     8    10    1
    16     8    14    1
    17     4     5    1
    18    28    36    1
    19    30    33    1
    20    30    38    1
    21    31    34    1
    22    31    39    1
    23    32    35    1
    24    32    40    1
    25    41    43   ar
    26    15    19    2
    27    42    43   ar
    28    16    22    2
    29    17    12    1
    30    17    19   ar
    31    17    20   ar
    32    18    19   ar
    33    18    22   ar
    34    18    23    1
    35     9    10    1
    36     9    11    1
    37    10    12    1
    38    11     5    1
    39    33    34    1
    40    33    35    1
    41    34    36    1
    42    35    37    1
    43    37    43    1
    44    20    21   ar
    45    21    22   ar
@<TRIPOS>MOLECULE
*****
 43 45 0 0 0
SMALL
GASTEIGER

@<TRIPOS>ATOM
      1 P          21.4922   73.4012   -1.8547 P.3     1  UNL1        0.2189
      2 O          20.1575   74.3157   -1.8859 O.co2   1  UNL1       -0.4371
      3 O          22.7685   74.1511   -1.6083 O.2     1  UNL1       -0.5170
      4 O          21.4238   72.5666   -3.2391 O.3     1  UNL1       -0.3112
      5 C          21.2220   73.2765   -4.4473 C.3     1  UNL1        0.1811
      6 O          20.8131   71.0665   -5.2996 O.3     1  UNL1       -0.3308
      7 O          21.4526   72.1927   -8.0041 O.3     1  UNL1       -0.3794
      8 O          18.7269   72.1140   -8.0207 O.3     1  UNL1       -0.3779
      9 C          20.7747   72.8057   -6.9072 C.3     1  UNL1        0.1713
     10 C          19.3766   72.2406   -6.7731 C.3     1  UNL1        0.1895
     11 C          21.4357   72.3292   -5.6210 C.3     1  UNL1        0.1764
     12 C          19.6409   70.8983   -6.1126 C.3     1  UNL1        0.2383
     13 H          21.0479   72.4821   -8.8372 H       1  UNL1        0.2105
     14 H          18.5810   72.9953   -8.4001 H       1  UNL1        0.2106
     15 O          17.2744   69.6926   -7.0730 O.2     1  UNL1       -0.2464
     16 O          15.5286   69.3093   -2.8246 O.2     1  UNL1       -0.2670
     17 N          18.5518   70.4736   -5.2794 N.ar    1  UNL1       -0.2551
     18 N          16.4067   69.5038   -4.9562 N.ar    1  UNL1       -0.2743
     19 C          17.4077   69.8788   -5.8620 C.ar    1  UNL1        0.3323
     20 C          18.6238   70.6458   -3.9024 C.ar    1  UNL1        0.0869
     21 C          17.6617   70.2831   -3.0518 C.ar    1  UNL1        0.0795
     22 C          16.4325   69.6551   -3.5793 C.ar    1  UNL1        0.2626
     23 H          15.5996   69.0894   -5.3385 H       1  UNL1        0.1734
     24 O          21.1412   72.2848   -0.7396 O.3     1  UNL1       -0.2703
     25 P          22.1011   71.3625    0.1778 P.3     1  UNL1        0.2208
     26 O          23.3189   70.9883   -0.8209 O.co2   1  UNL1       -0.4371
     27 O          21.4143   70.1749    0.7876 O.2     1  UNL1       -0.5170
     28 O          22.7495   72.3825    1.2462 O.3     1  UNL1       -0.2858
     29 O          24.3591   72.3003    2.9816 O.3     1  UNL1       -0.3226
     30 O          21.3169   74.4580    4.7583 O.3     1  UNL1       -0.3794
     31 O          20.7102   72.1173    3.1190 O.3     1  UNL1       -0.3775
     32 O          23.7150   75.8120    3.8274 O.3     1  UNL1       -0.3792
     33 C          22.1324   74.0013    3.6793 C.3     1  UNL1        0.1718
     34 C          22.0143   72.4820    3.5561 C.3     1  UNL1        0.1968
     35 C          23.5793   74.4002    3.9784 C.3     1  UNL1        0.1723
     36 C          23.0431   71.9317    2.5673 C.3     1  UNL1        0.2706
     37 C          24.5547   73.7119    3.0280 C.3     1  UNL1        0.1830
     38 H          20.3926   74.2157    4.5903 H       1  UNL1        0.2105
     39 H          20.0524   72.4635    3.7417 H       1  UNL1        0.2106
     40 H          23.0993   76.2620    4.4268 H       1  UNL1        0.2106
     41 O          25.9897   74.5062    4.7047 O.co2   1  UNL1       -0.5466
     42 O          26.9467   73.4052    2.9523 O.co2   1  UNL1       -0.5466
     43 C          25.9582   73.8400    3.5240 C.2     1  UNL1        0.0799
@<TRIPOS>UNITY_ATOM_ATTR
2 1
charge -1
26 1
charge -1
41 1
charge -1
@<TRIPOS>BOND
     1     1     4    1
     2     1    24    1
     3     1     2    1
     4     1     3    2
     5    25    28    1
     6    25    24    1
     7    25    26    1
     8    25    27    2
     9     6    11    1
    10     6    12    1
    11    29    36    1
    12    29    37    1
    13     7     9    1
    14     7    13    1
    15     8    10    1
    16     8    14    1
    17     4     5    1
    18    28    36    1
    19    30    33    1
    20    30    38    1
    21    31    34    1
    22    31    39    1
    23    32    35    1
    24    32    40    1
    25    41    43   ar
    26    15    19    2
    27    42    43   ar
    28    16    22    2
    29    17    12    1
    30    17    19   ar
    31    17    20   ar
    32    18    19   ar
    33    18    22   ar
    34    18    23    1
    35     9    10    1
    36     9    11    1
    37    10    12    1
    38    11     5    1
    39    33    34    1
    40    33    35    1
    41    34    36    1
    42    35    37    1
    43    37    43    1
    44    20    21   ar
    45    21    22   ar
@<TRIPOS>MOLECULE
*****
 43 45 0 0 0
SMALL
GASTEIGER

@<TRIPOS>ATOM
      1 P          23.4077   72.0150   -3.1209 P.3     1  UNL1        0.2189
      2 O          23.9551   73.3515   -3.8510 O.co2   1  UNL1       -0.4371
      3 O          24.2985   70.8141   -3.2469 O.2     1  UNL1       -0.5170
      4 O          21.9078   71.8413   -3.7023 O.3     1  UNL1       -0.3112
      5 C          21.4762   72.7131   -4.7310 C.3     1  UNL1        0.1811
      6 O          20.6421   70.7143   -5.7733 O.3     1  UNL1       -0.3308
      7 O          21.0063   72.1460   -8.3828 O.3     1  UNL1       -0.3794
      8 O          18.3257   72.3831   -7.9421 O.3     1  UNL1       -0.3779
      9 C          20.5957   72.6643   -7.1173 C.3     1  UNL1        0.1713
     10 C          19.1707   72.2493   -6.8184 C.3     1  UNL1        0.1895
     11 C          21.3749   71.9310   -6.0341 C.3     1  UNL1        0.1764
     12 C          19.3470   70.8030   -6.3882 C.3     1  UNL1        0.2383
     13 H          20.5218   72.5994   -9.0909 H       1  UNL1        0.2105
     14 H          18.2453   73.3215   -8.1763 H       1  UNL1        0.2106
     15 O          16.8047   69.7912   -7.0880 O.2     1  UNL1       -0.2464
     16 O          15.6063   69.2404   -2.6716 O.2     1  UNL1       -0.2670
     17 N          18.3511   70.3876   -5.4414 N.ar    1  UNL1       -0.2551
     18 N          16.2099   69.5188   -4.8877 N.ar    1  UNL1       -0.2743
     19 C          17.1059   69.8940   -5.8974 C.ar    1  UNL1        0.3323
     20 C          18.6124   70.4695   -4.0790 C.ar    1  UNL1        0.0869
     21 C          17.7484   70.1080   -3.1285 C.ar    1  UNL1        0.0795
     22 C          16.4242   69.5824   -3.5204 C.ar    1  UNL1        0.2626
     23 H          15.3355   69.1740   -5.1807 H       1  UNL1        0.1734
     24 O          23.1540   72.5089   -1.6028 O.3     1  UNL1       -0.2703
     25 P          22.8207   71.6765   -0.2575 P.3     1  UNL1        0.2208
     26 O          24.2462   71.0154    0.1311 O.co2   1  UNL1       -0.4371
     27 O          21.7007   70.6880   -0.4066 O.2     1  UNL1       -0.5170
     28 O          22.5734   72.8032    0.8702 O.3     1  UNL1       -0.2858
     29 O          23.7333   74.6270    1.8387 O.3     1  UNL1       -0.3226
     30 O          22.2820   72.6825    5.1825 O.3     1  UNL1       -0.3794
     31 O          23.4048   71.1612    2.9556 O.3     1  UNL1       -0.3775
     32 O          21.0273   75.1384    4.2632 O.3     1  UNL1       -0.3792
     33 C          22.2728   73.1231    3.8247 C.3     1  UNL1        0.1718
     34 C          23.5017   72.5734    3.0999 C.3     1  UNL1        0.1968
     35 C          22.2946   74.6533    3.8239 C.3     1  UNL1        0.1723
     36 C          23.6492   73.2066    1.7157 C.3     1  UNL1        0.2706
     37 C          22.5714   75.2058    2.4287 C.3     1  UNL1        0.1830
     38 H          22.2685   71.7127    5.2080 H       1  UNL1        0.2105
     39 H          23.3107   70.7529    3.8301 H       1  UNL1        0.2106
     40 H          20.8389   74.7939    5.1502 H       1  UNL1        0.2106
     41 O          22.1646   77.3669    1.6128 O.co2   1  UNL1       -0.5466
     42 O          23.7546   77.1488    3.2325 O.co2   1  UNL1       -0.5466
     43 C          22.9155   76.6583    2.4920 C.2     1  UNL1        0.0799
@<TRIPOS>UNITY_ATOM_ATTR
2 1
charge -1
26 1
charge -1
41 1
charge -1
@<TRIPOS>BOND
     1     1     4    1
     2     1    24    1
     3     1     2    1
     4     1     3    2
     5    25    28    1
     6    25    24    1
     7    25    26    1
     8    25    27    2
     9     6    11    1
    10     6    12    1
    11    29    36    1
    12    29    37    1
    13     7     9    1
    14     7    13    1
    15     8    10    1
    16     8    14    1
    17     4     5    1
    18    28    36    1
    19    30    33    1
    20    30    38    1
    21    31    34    1
    22    31    39    1
    23    32    35    1
    24    32    40    1
    25    41    43   ar
    26    15    19    2
    27    42    43   ar
    28    16    22    2
    29    17    12    1
    30    17    19   ar
    31    17    20   ar
    32    18    19   ar
    33    18    22   ar
    34    18    23    1
    35     9    10    1
    36     9    11    1
    37    10    12    1
    38    11     5    1
    39    33    34    1
    40    33    35    1
    41    34    36    1
    42    35    37    1
    43    37    43    1
    44    20    21   ar
    45    21    22   ar
@<TRIPOS>MOLECULE
*****
 43 45 0 0 0
SMALL
GASTEIGER

@<TRIPOS>ATOM
      1 P          20.0319   72.1073   -1.2014 P.3     1  UNL1        0.2189
      2 O          19.7927   70.5104   -1.0929 O.co2   1  UNL1       -0.4371
      3 O          19.0535   72.9479   -0.4346 O.2     1  UNL1       -0.5170
      4 O          20.0979   72.3829   -2.7943 O.3     1  UNL1       -0.3112
      5 C          19.5431   71.4193   -3.6708 C.3     1  UNL1        0.1811
      6 O          17.7182   72.0685   -5.0943 O.3     1  UNL1       -0.3308
      7 O          15.9269   70.7359   -3.0926 O.3     1  UNL1       -0.3794
      8 O          16.0962   68.8712   -5.0751 O.3     1  UNL1       -0.3779
      9 C          17.2344   70.3604   -3.5262 C.3     1  UNL1        0.1713
     10 C          17.1751   69.7690   -4.9187 C.3     1  UNL1        0.1895
     11 C          18.0373   71.6337   -3.7547 C.3     1  UNL1        0.1764
     12 C          17.0328   71.0104   -5.7827 C.3     1  UNL1        0.2383
     13 H          15.3951   69.9387   -2.9401 H       1  UNL1        0.2105
     14 H          16.2337   68.0980   -4.5049 H       1  UNL1        0.2106
     15 O          15.5548   70.6864   -8.1675 O.2     1  UNL1       -0.2464
     16 O          19.3840   70.3771  -10.7140 O.2     1  UNL1       -0.2670
     17 N          17.6181   70.8432   -7.0828 N.ar    1  UNL1       -0.2551
     18 N          17.4634   70.5316   -9.4334 N.ar    1  UNL1       -0.2743
     19 C          16.7862   70.6881   -8.2168 C.ar    1  UNL1        0.3323
     20 C          19.0004   70.8357   -7.2254 C.ar    1  UNL1        0.0869
     21 C          19.6313   70.6857   -8.3916 C.ar    1  UNL1        0.0795
     22 C          18.8355   70.5169   -9.6251 C.ar    1  UNL1        0.2626
     23 H          16.9054   70.4198  -10.2368 H       1  UNL1        0.1734
     24 O          21.5716   72.2758   -0.7393 O.3     1  UNL1       -0.2703
     25 P          22.5091   71.3426    0.1902 P.3     1  UNL1        0.2208
     26 O          23.6230   70.7890   -0.8457 O.co2   1  UNL1       -0.4371
     27 O          21.7668   70.2690    0.9321 O.2     1  UNL1       -0.5170
     28 O          23.3095   72.3776    1.1339 O.3     1  UNL1       -0.2858
     29 O          22.2294   73.7181    2.7605 O.3     1  UNL1       -0.3226
     30 O          25.7422   75.8048    2.1495 O.3     1  UNL1       -0.3794
     31 O          24.2840   74.6658   -0.1112 O.3     1  UNL1       -0.3775
     32 O          25.3952   74.2031    4.5505 O.3     1  UNL1       -0.3792
     33 C          24.9122   74.6463    2.2321 C.3     1  UNL1        0.1718
     34 C          23.7762   74.7570    1.2148 C.3     1  UNL1        0.1968
     35 C          24.3488   74.5685    3.6528 C.3     1  UNL1        0.1723
     36 C          22.7407   73.6521    1.4287 C.3     1  UNL1        0.2706
     37 C          23.2346   73.5307    3.7542 C.3     1  UNL1        0.1830
     38 H          26.1116   75.8751    1.2551 H       1  UNL1        0.2105
     39 H          24.9419   75.3639   -0.2538 H       1  UNL1        0.2106
     40 H          26.1108   74.8556    4.4956 H       1  UNL1        0.2106
     41 O          21.7110   74.8079    4.9988 O.co2   1  UNL1       -0.5466
     42 O          22.5317   72.9204    5.9801 O.co2   1  UNL1       -0.5466
     43 C          22.4768   73.6892    5.0320 C.2     1  UNL1        0.0799
@<TRIPOS>UNITY_ATOM_ATTR
2 1
charge -1
26 1
charge -1
41 1
charge -1
@<TRIPOS>BOND
     1     1     4    1
     2     1    24    1
     3     1     2    1
     4     1     3    2
     5    25    28    1
     6    25    24    1
     7    25    26    1
     8    25    27    2
     9     6    11    1
    10     6    12    1
    11    29    36    1
    12    29    37    1
    13     7     9    1
    14     7    13    1
    15     8    10    1
    16     8    14    1
    17     4     5    1
    18    28    36    1
    19    30    33    1
    20    30    38    1
    21    31    34    1
    22    31    39    1
    23    32    35    1
    24    32    40    1
    25    41    43   ar
    26    15    19    2
    27    42    43   ar
    28    16    22    2
    29    17    12    1
    30    17    19   ar
    31    17    20   ar
    32    18    19   ar
    33    18    22   ar
    34    18    23    1
    35     9    10    1
    36     9    11    1
    37    10    12    1
    38    11     5    1
    39    33    34    1
    40    33    35    1
    41    34    36    1
    42    35    37    1
    43    37    43    1
    44    20    21   ar
    45    21    22   ar
@<TRIPOS>MOLECULE
*****
 43 45 0 0 0
SMALL
GASTEIGER

@<TRIPOS>ATOM
      1 P          19.9300   72.0283   -1.2780 P.3     1  UNL1        0.2189
      2 O          19.7783   70.4193   -1.1951 O.co2   1  UNL1       -0.4371
      3 O          18.8720   72.8029   -0.5484 O.2     1  UNL1       -0.5170
      4 O          20.0509   72.3260   -2.8638 O.3     1  UNL1       -0.3112
      5 C          19.5200   71.3784   -3.7719 C.3     1  UNL1        0.1811
      6 O          17.7324   72.0179   -5.2461 O.3     1  UNL1       -0.3308
      7 O          15.8885   70.7130   -3.2742 O.3     1  UNL1       -0.3794
      8 O          16.0992   68.8263   -5.2317 O.3     1  UNL1       -0.3779
      9 C          17.2048   70.3286   -3.6719 C.3     1  UNL1        0.1713
     10 C          17.1772   69.7223   -5.0589 C.3     1  UNL1        0.1895
     11 C          18.0174   71.5967   -3.8946 C.3     1  UNL1        0.1764
     12 C          17.0602   70.9546   -5.9395 C.3     1  UNL1        0.2383
     13 H          15.3504   69.9192   -3.1260 H       1  UNL1        0.2105
     14 H          16.2202   68.0589   -4.6500 H       1  UNL1        0.2106
     15 O          15.6392   70.6088   -8.3557 O.2     1  UNL1       -0.2464
     16 O          19.5279   70.2600  -10.8052 O.2     1  UNL1       -0.2670
     17 N          17.6762   70.7714   -7.2232 N.ar    1  UNL1       -0.2551
     18 N          17.5773   70.4344   -9.5732 N.ar    1  UNL1       -0.2743
     19 C          16.8715   70.6062   -8.3752 C.ar    1  UNL1        0.3323
     20 C          19.0615   70.7582   -7.3321 C.ar    1  UNL1        0.0869
     21 C          19.7199   70.5935   -8.4810 C.ar    1  UNL1        0.0795
     22 C          18.9536   70.4134   -9.7315 C.ar    1  UNL1        0.2626
     23 H          17.0385   70.3154  -10.3886 H       1  UNL1        0.1734
     24 O          21.4356   72.2787   -0.7454 O.3     1  UNL1       -0.2703
     25 P          22.3527   71.4318    0.2817 P.3     1  UNL1        0.2208
     26 O          23.5658   70.9064   -0.6525 O.co2   1  UNL1       -0.4371
     27 O          21.6178   70.3442    1.0105 O.2     1  UNL1       -0.5170
     28 O          23.0271   72.5415    1.2388 O.3     1  UNL1       -0.2858
     29 O          24.2443   74.2906    0.2051 O.3     1  UNL1       -0.3226
     30 O          25.4365   74.6508    4.1442 O.3     1  UNL1       -0.3794
     31 O          25.1901   72.0160    2.9066 O.3     1  UNL1       -0.3775
     32 O          23.5283   76.5334    3.0192 O.3     1  UNL1       -0.3792
     33 C          24.5382   74.3467    3.0771 C.3     1  UNL1        0.1718
     34 C          25.1398   73.2494    2.1988 C.3     1  UNL1        0.1968
     35 C          24.3235   75.6235    2.2613 C.3     1  UNL1        0.1723
     36 C          24.3186   73.0582    0.9229 C.3     1  UNL1        0.2706
     37 C          23.6087   75.3302    0.9455 C.3     1  UNL1        0.1830
     38 H          25.5880   73.8540    4.6765 H       1  UNL1        0.2105
     39 H          25.7094   72.1301    3.7176 H       1  UNL1        0.2106
     40 H          23.9721   76.7283    3.8594 H       1  UNL1        0.2106
     41 O          24.6148   76.2772   -0.9500 O.co2   1  UNL1       -0.5466
     42 O          23.0329   77.5231    0.1199 O.co2   1  UNL1       -0.5466
     43 C          23.6959   76.5014    0.0219 C.2     1  UNL1        0.0799
@<TRIPOS>UNITY_ATOM_ATTR
2 1
charge -1
26 1
charge -1
41 1
charge -1
@<TRIPOS>BOND
     1     1     4    1
     2     1    24    1
     3     1     2    1
     4     1     3    2
     5    25    28    1
     6    25    24    1
     7    25    26    1
     8    25    27    2
     9     6    11    1
    10     6    12    1
    11    29    36    1
    12    29    37    1
    13     7     9    1
    14     7    13    1
    15     8    10    1
    16     8    14    1
    17     4     5    1
    18    28    36    1
    19    30    33    1
    20    30    38    1
    21    31    34    1
    22    31    39    1
    23    32    35    1
    24    32    40    1
    25    41    43   ar
    26    15    19    2
    27    42    43   ar
    28    16    22    2
    29    17    12    1
    30    17    19   ar
    31    17    20   ar
    32    18    19   ar
    33    18    22   ar
    34    18    23    1
    35     9    10    1
    36     9    11    1
    37    10    12    1
    38    11     5    1
    39    33    34    1
    40    33    35    1
    41    34    36    1
    42    35    37    1
    43    37    43    1
    44    20    21   ar
    45    21    22   ar
@<TRIPOS>MOLECULE
*****
 43 45 0 0 0
SMALL
GASTEIGER

@<TRIPOS>ATOM
      1 P          21.4177   72.6262   -4.7754 P.3     1  UNL1        0.2189
      2 O          21.3317   74.2282   -4.5635 O.co2   1  UNL1       -0.4371
      3 O          22.2787   72.1841   -5.9222 O.2     1  UNL1       -0.5170
      4 O          19.8699   72.1589   -4.8380 O.3     1  UNL1       -0.3112
      5 C          19.3382   71.4328   -3.7450 C.3     1  UNL1        0.1811
      6 O          17.4673   71.7585   -5.2187 O.3     1  UNL1       -0.3308
      7 O          15.8714   70.1650   -3.2425 O.3     1  UNL1       -0.3794
      8 O          16.3963   68.3370   -5.1968 O.3     1  UNL1       -0.3779
      9 C          17.2335   70.0074   -3.6408 C.3     1  UNL1        0.1713
     10 C          17.3076   69.4024   -5.0267 C.3     1  UNL1        0.1895
     11 C          17.8203   71.3941   -3.8666 C.3     1  UNL1        0.1764
     12 C          16.9837   70.5956   -5.9094 C.3     1  UNL1        0.2383
     13 H          15.4751   69.2920   -3.0923 H       1  UNL1        0.2105
     14 H          16.6455   67.6022   -4.6138 H       1  UNL1        0.2106
     15 O          15.6186   70.7279   -8.3784 O.2     1  UNL1       -0.2464
     16 O          19.5311   70.2811  -10.7735 O.2     1  UNL1       -0.2670
     17 N          17.6210   70.5165   -7.1933 N.ar    1  UNL1       -0.2551
     18 N          17.5685   70.5042   -9.5689 N.ar    1  UNL1       -0.2743
     19 C          16.8437   70.5932   -8.3732 C.ar    1  UNL1        0.3323
     20 C          19.0001   70.3663   -7.2751 C.ar    1  UNL1        0.0869
     21 C          19.6768   70.2831   -8.4222 C.ar    1  UNL1        0.0795
     22 C          18.9395   70.3539   -9.7007 C.ar    1  UNL1        0.2626
     23 H          17.0487   70.5531  -10.4036 H       1  UNL1        0.1734
     24 O          21.8997   72.0939   -3.3273 O.3     1  UNL1       -0.2703
     25 P          23.3707   72.0146   -2.6613 P.3     1  UNL1        0.2208
     26 O          24.0466   73.4220   -3.0887 O.co2   1  UNL1       -0.4371
     27 O          24.1622   70.8025   -3.0590 O.2     1  UNL1       -0.5170
     28 O          23.1100   72.1532   -1.0753 O.3     1  UNL1       -0.2858
     29 O          24.3047   70.9740    0.5954 O.3     1  UNL1       -0.3226
     30 O          20.7564   71.8172    2.5362 O.3     1  UNL1       -0.3794
     31 O          20.7479   70.9386   -0.2500 O.3     1  UNL1       -0.3775
     32 O          23.1581   73.3302    3.1636 O.3     1  UNL1       -0.3792
     33 C          21.8268   72.0460    1.6197 C.3     1  UNL1        0.1718
     34 C          21.8848   70.9038    0.6050 C.3     1  UNL1        0.1968
     35 C          23.1290   72.1129    2.4208 C.3     1  UNL1        0.1723
     36 C          23.1516   70.9927   -0.2470 C.3     1  UNL1        0.2706
     37 C          24.3491   72.0709    1.5052 C.3     1  UNL1        0.1830
     38 H          19.9183   71.7709    2.0496 H       1  UNL1        0.2105
     39 H          19.9404   70.8829    0.2841 H       1  UNL1        0.2106
     40 H          22.3867   73.3694    3.7503 H       1  UNL1        0.2106
     41 O          26.0609   72.9505    2.8459 O.co2   1  UNL1       -0.5466
     42 O          26.1196   70.7112    2.4204 O.co2   1  UNL1       -0.5466
     43 C          25.5924   71.8057    2.2901 C.2     1  UNL1        0.0799
@<TRIPOS>UNITY_ATOM_ATTR
2 1
charge -1
26 1
charge -1
41 1
charge -1
@<TRIPOS>BOND
     1     1     4    1
     2     1    24    1
     3     1     2    1
     4     1     3    2
     5    25    28    1
     6    25    24    1
     7    25    26    1
     8    25    27    2
     9     6    11    1
    10     6    12    1
    11    29    36    1
    12    29    37    1
    13     7     9    1
    14     7    13    1
    15     8    10    1
    16     8    14    1
    17     4     5    1
    18    28    36    1
    19    30    33    1
    20    30    38    1
    21    31    34    1
    22    31    39    1
    23    32    35    1
    24    32    40    1
    25    41    43   ar
    26    15    19    2
    27    42    43   ar
    28    16    22    2
    29    17    12    1
    30    17    19   ar
    31    17    20   ar
    32    18    19   ar
    33    18    22   ar
    34    18    23    1
    35     9    10    1
    36     9    11    1
    37    10    12    1
    38    11     5    1
    39    33    34    1
    40    33    35    1
    41    34    36    1
    42    35    37    1
    43    37    43    1
    44    20    21   ar
    45    21    22   ar
@<TRIPOS>MOLECULE
*****
 43 45 0 0 0
SMALL
GASTEIGER

@<TRIPOS>ATOM
      1 P          22.9195   72.8160   -4.1822 P.3     1  UNL1        0.2189
      2 O          23.2872   73.8750   -5.3494 O.co2   1  UNL1       -0.4371
      3 O          24.0434   71.9106   -3.7712 O.2     1  UNL1       -0.5170
      4 O          21.5883   72.0786   -4.7319 O.3     1  UNL1       -0.3112
      5 C          21.0044   71.0597   -3.9411 C.3     1  UNL1        0.1811
      6 O          18.9726   71.9233   -4.8916 O.3     1  UNL1       -0.3308
      7 O          17.5712   70.6975   -2.5411 O.3     1  UNL1       -0.3794
      8 O          17.0924   68.8923   -4.5281 O.3     1  UNL1       -0.3779
      9 C          18.6992   70.2163   -3.2722 C.3     1  UNL1        0.1713
     10 C          18.2612   69.6799   -4.6185 C.3     1  UNL1        0.1895
     11 C          19.5488   71.4162   -3.6684 C.3     1  UNL1        0.1764
     12 C          18.0456   70.9573   -5.4121 C.3     1  UNL1        0.2383
     13 H          17.0133   69.9487   -2.2770 H       1  UNL1        0.2105
     14 H          17.2815   68.0910   -4.0141 H       1  UNL1        0.2106
     15 O          16.1055   70.1099   -7.2814 O.2     1  UNL1       -0.2464
     16 O          19.1130   70.3104  -10.7683 O.2     1  UNL1       -0.2670
     17 N          18.2946   70.7797   -6.8147 N.ar    1  UNL1       -0.2551
     18 N          17.6055   70.2096   -9.0161 N.ar    1  UNL1       -0.2743
     19 C          17.2508   70.3502   -7.6680 C.ar    1  UNL1        0.3323
     20 C          19.5595   71.0316   -7.3319 C.ar    1  UNL1        0.0869
     21 C          19.8824   70.8932   -8.6193 C.ar    1  UNL1        0.0795
     22 C          18.8497   70.4474   -9.5775 C.ar    1  UNL1        0.2626
     23 H          16.8960   69.9097   -9.6293 H       1  UNL1        0.1734
     24 O          22.3498   73.7612   -3.0011 O.3     1  UNL1       -0.2703
     25 P          23.1154   74.5989   -1.8496 P.3     1  UNL1        0.2208
     26 O          22.3455   76.0228   -1.8544 O.co2   1  UNL1       -0.4371
     27 O          24.6006   74.6983   -2.0448 O.2     1  UNL1       -0.5170
     28 O          22.6672   73.8984   -0.4673 O.3     1  UNL1       -0.2858
     29 O          23.7507   73.5635    1.6119 O.3     1  UNL1       -0.3226
     30 O          21.6423   70.0364    1.1849 O.3     1  UNL1       -0.3794
     31 O          23.0356   71.2143   -1.0967 O.3     1  UNL1       -0.3775
     32 O          20.7074   72.0814    3.0275 O.3     1  UNL1       -0.3792
     33 C          21.8892   71.4339    1.0302 C.3     1  UNL1        0.1718
     34 C          23.1889   71.6409    0.2521 C.3     1  UNL1        0.1968
     35 C          22.0003   72.0519    2.4259 C.3     1  UNL1        0.1723
     36 C          23.6058   73.1122    0.2647 C.3     1  UNL1        0.2706
     37 C          22.5415   73.4772    2.3625 C.3     1  UNL1        0.1830
     38 H          21.5680   69.6223    0.3107 H       1  UNL1        0.2105
     39 H          22.7708   70.2815   -1.1122 H       1  UNL1        0.2106
     40 H          20.3516   71.1802    3.0737 H       1  UNL1        0.2106
     41 O          21.9018   74.4955    4.3763 O.co2   1  UNL1       -0.5466
     42 O          24.0816   73.8559    4.1807 O.co2   1  UNL1       -0.5466
     43 C          22.9542   73.9487    3.7189 C.2     1  UNL1        0.0799
@<TRIPOS>UNITY_ATOM_ATTR
2 1
charge -1
26 1
charge -1
41 1
charge -1
@<TRIPOS>BOND
     1     1     4    1
     2     1    24    1
     3     1     2    1
     4     1     3    2
     5    25    28    1
     6    25    24    1
     7    25    26    1
     8    25    27    2
     9     6    11    1
    10     6    12    1
    11    29    36    1
    12    29    37    1
    13     7     9    1
    14     7    13    1
    15     8    10    1
    16     8    14    1
    17     4     5    1
    18    28    36    1
    19    30    33    1
    20    30    38    1
    21    31    34    1
    22    31    39    1
    23    32    35    1
    24    32    40    1
    25    41    43   ar
    26    15    19    2
    27    42    43   ar
    28    16    22    2
    29    17    12    1
    30    17    19   ar
    31    17    20   ar
    32    18    19   ar
    33    18    22   ar
    34    18    23    1
    35     9    10    1
    36     9    11    1
    37    10    12    1
    38    11     5    1
    39    33    34    1
    40    33    35    1
    41    34    36    1
    42    35    37    1
    43    37    43    1
    44    20    21   ar
    45    21    22   ar
@<TRIPOS>MOLECULE
*****
 43 45 0 0 0
SMALL
GASTEIGER

@<TRIPOS>ATOM
      1 P          20.0075   72.0542   -1.1553 P.3     1  UNL1        0.2189
      2 O          19.9803   70.4576   -0.8922 O.co2   1  UNL1       -0.4371
      3 O          18.7320   72.7725   -0.8252 O.2     1  UNL1       -0.5170
      4 O          20.5125   72.1870   -2.6868 O.3     1  UNL1       -0.3112
      5 C          19.9290   71.3475   -3.6663 C.3     1  UNL1        0.1811
      6 O          18.0843   72.0582   -5.0335 O.3     1  UNL1       -0.3308
      7 O          16.3130   70.7532   -2.9961 O.3     1  UNL1       -0.3794
      8 O          16.3794   68.9044   -4.9995 O.3     1  UNL1       -0.3779
      9 C          17.5979   70.3479   -3.4685 C.3     1  UNL1        0.1713
     10 C          17.4855   69.7721   -4.8643 C.3     1  UNL1        0.1895
     11 C          18.4277   71.6020   -3.7072 C.3     1  UNL1        0.1764
     12 C          17.3528   71.0253   -5.7127 C.3     1  UNL1        0.2383
     13 H          15.7646   69.9687   -2.8364 H       1  UNL1        0.2105
     14 H          16.5118   68.1223   -4.4403 H       1  UNL1        0.2106
     15 O          15.8492   70.2483   -7.9737 O.2     1  UNL1       -0.2464
     16 O          19.5502   70.4058  -10.7162 O.2     1  UNL1       -0.2670
     17 N          17.8982   70.8557   -7.0297 N.ar    1  UNL1       -0.2551
     18 N          17.6941   70.3265   -9.3372 N.ar    1  UNL1       -0.2743
     19 C          17.0566   70.4625   -8.0970 C.ar    1  UNL1        0.3323
     20 C          19.2511   71.0796   -7.2542 C.ar    1  UNL1        0.0869
     21 C          19.8444   70.9460   -8.4421 C.ar    1  UNL1        0.0795
     22 C          19.0361   70.5374   -9.6095 C.ar    1  UNL1        0.2626
     23 H          17.1290   70.0516  -10.0951 H       1  UNL1        0.1734
     24 O          21.2935   72.5402   -0.3052 O.3     1  UNL1       -0.2703
     25 P          21.4169   73.0994    1.2067 P.3     1  UNL1        0.2208
     26 O          20.3597   72.1874    2.0258 O.co2   1  UNL1       -0.4371
     27 O          21.1894   74.5777    1.3370 O.2     1  UNL1       -0.5170
     28 O          22.8645   72.5977    1.7118 O.3     1  UNL1       -0.2858
     29 O          24.6122   73.9026    0.7888 O.3     1  UNL1       -0.3226
     30 O          26.7211   70.9598    2.7790 O.3     1  UNL1       -0.3794
     31 O          24.3340   70.2847    1.2361 O.3     1  UNL1       -0.3775
     32 O          26.5369   73.6352    3.9011 O.3     1  UNL1       -0.3792
     33 C          25.6332   71.8557    2.5513 C.3     1  UNL1        0.1718
     34 C          24.9902   71.5467    1.1991 C.3     1  UNL1        0.1968
     35 C          26.1854   73.2829    2.5644 C.3     1  UNL1        0.1723
     36 C          23.9750   72.6248    0.8170 C.3     1  UNL1        0.2706
     37 C          25.1542   74.2839    2.0514 C.3     1  UNL1        0.1830
     38 H          26.3942   70.0463    2.7749 H       1  UNL1        0.2105
     39 H          24.9722   69.5959    1.4782 H       1  UNL1        0.2106
     40 H          27.1926   73.0057    4.2396 H       1  UNL1        0.2106
     41 O          25.3421   76.1016    0.5809 O.co2   1  UNL1       -0.5466
     42 O          26.6116   76.1597    2.4740 O.co2   1  UNL1       -0.5466
     43 C          25.7944   75.6015    1.7575 C.2     1  UNL1        0.0799
@<TRIPOS>UNITY_ATOM_ATTR
2 1
charge -1
26 1
charge -1
41 1
charge -1
@<TRIPOS>BOND
     1     1     4    1
     2     1    24    1
     3     1     2    1
     4     1     3    2
     5    25    28    1
     6    25    24    1
     7    25    26    1
     8    25    27    2
     9     6    11    1
    10     6    12    1
    11    29    36    1
    12    29    37    1
    13     7     9    1
    14     7    13    1
    15     8    10    1
    16     8    14    1
    17     4     5    1
    18    28    36    1
    19    30    33    1
    20    30    38    1
    21    31    34    1
    22    31    39    1
    23    32    35    1
    24    32    40    1
    25    41    43   ar
    26    15    19    2
    27    42    43   ar
    28    16    22    2
    29    17    12    1
    30    17    19   ar
    31    17    20   ar
    32    18    19   ar
    33    18    22   ar
    34    18    23    1
    35     9    10    1
    36     9    11    1
    37    10    12    1
    38    11     5    1
    39    33    34    1
    40    33    35    1
    41    34    36    1
    42    35    37    1
    43    37    43    1
    44    20    21   ar
    45    21    22   ar
@<TRIPOS>MOLECULE
*****
 43 45 0 0 0
SMALL
GASTEIGER

@<TRIPOS>ATOM
      1 P          22.5618   73.0219   -3.9641 P.3     1  UNL1        0.2189
      2 O          23.8542   72.1978   -4.4832 O.co2   1  UNL1       -0.4371
      3 O          22.7811   74.4951   -3.7817 O.2     1  UNL1       -0.5170
      4 O          22.0896   72.2131   -2.6446 O.3     1  UNL1       -0.3112
      5 C          21.1816   71.1379   -2.7995 C.3     1  UNL1        0.1811
      6 O          20.5659   70.6329   -0.5316 O.3     1  UNL1       -0.3308
      7 O          18.4380   72.7228   -0.8403 O.3     1  UNL1       -0.3794
      8 O          20.3734   74.0445    0.5538 O.3     1  UNL1       -0.3779
      9 C          19.7618   72.6954   -1.3744 C.3     1  UNL1        0.1713
     10 C          20.7729   72.9801   -0.2841 C.3     1  UNL1        0.1895
     11 C          20.0893   71.2552   -1.7444 C.3     1  UNL1        0.1764
     12 C          20.8308   71.6500    0.4476 C.3     1  UNL1        0.2383
     13 H          18.2061   73.6331   -0.5966 H       1  UNL1        0.2105
     14 H          20.3523   74.8687    0.0417 H       1  UNL1        0.2106
     15 O          21.4211   72.0128    3.1855 O.2     1  UNL1       -0.2464
     16 O          25.7954   70.6807    2.6064 O.2     1  UNL1       -0.2670
     17 N          22.1157   71.4054    1.0391 N.ar    1  UNL1       -0.2551
     18 N          23.5995   71.3500    2.8943 N.ar    1  UNL1       -0.2743
     19 C          22.3072   71.6192    2.4246 C.ar    1  UNL1        0.3323
     20 C          23.1685   70.9577    0.2503 C.ar    1  UNL1        0.0869
     21 C          24.3947   70.7053    0.7123 C.ar    1  UNL1        0.0795
     22 C          24.6787   70.9040    2.1487 C.ar    1  UNL1        0.2626
     23 H          23.7575   71.4934    3.8554 H       1  UNL1        0.1734
     24 O          21.4273   72.6394   -5.0501 O.3     1  UNL1       -0.2703
     25 P          20.2562   73.5300   -5.7203 P.3     1  UNL1        0.2208
     26 O          20.9298   74.0513   -7.0968 O.co2   1  UNL1       -0.4371
     27 O          19.7316   74.6236   -4.8356 O.2     1  UNL1       -0.5170
     28 O          19.1456   72.4587   -6.1906 O.3     1  UNL1       -0.2858
     29 O          18.7677   70.1942   -5.6089 O.3     1  UNL1       -0.3226
     30 O          17.7449   70.2158   -9.6116 O.3     1  UNL1       -0.3794
     31 O          20.1038   71.6645   -8.6781 O.3     1  UNL1       -0.3775
     32 O          15.6709   70.1427   -7.5759 O.3     1  UNL1       -0.3792
     33 C          17.8846   70.7602   -8.2993 C.3     1  UNL1        0.1718
     34 C          19.3581   70.7422   -7.8919 C.3     1  UNL1        0.1968
     35 C          17.0568   69.9014   -7.3405 C.3     1  UNL1        0.1723
     36 C          19.5217   71.1010   -6.4143 C.3     1  UNL1        0.2706
     37 C          17.3693   70.2334   -5.8842 C.3     1  UNL1        0.1830
     38 H          18.2626   70.7454  -10.2383 H       1  UNL1        0.2105
     39 H          20.0043   71.4429   -9.6169 H       1  UNL1        0.2106
     40 H          15.4589   69.9355   -8.4994 H       1  UNL1        0.2106
     41 O          16.2758   68.1680   -5.6837 O.co2   1  UNL1       -0.5466
     42 O          16.8498   69.2330   -3.7510 O.co2   1  UNL1       -0.5466
     43 C          16.8182   69.1867   -4.9715 C.2     1  UNL1        0.0799
@<TRIPOS>UNITY_ATOM_ATTR
2 1
charge -1
26 1
charge -1
41 1
charge -1
@<TRIPOS>BOND
     1     1     4    1
     2     1    24    1
     3     1     2    1
     4     1     3    2
     5    25    28    1
     6    25    24    1
     7    25    26    1
     8    25    27    2
     9     6    11    1
    10     6    12    1
    11    29    36    1
    12    29    37    1
    13     7     9    1
    14     7    13    1
    15     8    10    1
    16     8    14    1
    17     4     5    1
    18    28    36    1
    19    30    33    1
    20    30    38    1
    21    31    34    1
    22    31    39    1
    23    32    35    1
    24    32    40    1
    25    41    43   ar
    26    15    19    2
    27    42    43   ar
    28    16    22    2
    29    17    12    1
    30    17    19   ar
    31    17    20   ar
    32    18    19   ar
    33    18    22   ar
    34    18    23    1
    35     9    10    1
    36     9    11    1
    37    10    12    1
    38    11     5    1
    39    33    34    1
    40    33    35    1
    41    34    36    1
    42    35    37    1
    43    37    43    1
    44    20    21   ar
    45    21    22   ar
@<TRIPOS>MOLECULE
*****
 43 45 0 0 0
SMALL
GASTEIGER

@<TRIPOS>ATOM
      1 P          22.1172   71.4999   -2.9286 P.3     1  UNL1        0.2189
      2 O          21.7930   73.0759   -2.7554 O.co2   1  UNL1       -0.4371
      3 O          23.5485   71.1784   -3.2443 O.2     1  UNL1       -0.5170
      4 O          21.0281   70.9962   -4.0140 O.3     1  UNL1       -0.3112
      5 C          20.1114   69.9865   -3.6336 C.3     1  UNL1        0.1811
      6 O          18.4565   71.3442   -4.7271 O.3     1  UNL1       -0.3308
      7 O          16.4861   70.1697   -2.7959 O.3     1  UNL1       -0.3794
      8 O          16.0222   68.7341   -5.0675 O.3     1  UNL1       -0.3779
      9 C          17.6129   69.5562   -3.4224 C.3     1  UNL1        0.1713
     10 C          17.3134   69.2745   -4.8796 C.3     1  UNL1        0.1895
     11 C          18.7203   70.5966   -3.5201 C.3     1  UNL1        0.1764
     12 C          17.4683   70.6502   -5.5051 C.3     1  UNL1        0.2383
     13 H          15.7653   69.5241   -2.7224 H       1  UNL1        0.2105
     14 H          15.9745   67.8584   -4.6517 H       1  UNL1        0.2106
     15 O          15.7533   70.2928   -7.7203 O.2     1  UNL1       -0.2464
     16 O          19.2712   70.4159  -10.6956 O.2     1  UNL1       -0.2670
     17 N          17.9095   70.5852   -6.8696 N.ar    1  UNL1       -0.2551
     18 N          17.5072   70.3534   -9.2000 N.ar    1  UNL1       -0.2743
     19 C          16.9663   70.4030   -7.9085 C.ar    1  UNL1        0.3323
     20 C          19.2616   70.7030   -7.1678 C.ar    1  UNL1        0.0869
     21 C          19.7621   70.6539   -8.4038 C.ar    1  UNL1        0.0795
     22 C          18.8441   70.4650   -9.5461 C.ar    1  UNL1        0.2626
     23 H          16.8701   70.2252   -9.9396 H       1  UNL1        0.1734
     24 O          21.5733   70.8634   -1.5459 O.3     1  UNL1       -0.2703
     25 P          21.9898   71.1486   -0.0100 P.3     1  UNL1        0.2208
     26 O          23.5678   71.4944   -0.1128 O.co2   1  UNL1       -0.4371
     27 O          21.6624   70.0288    0.9349 O.2     1  UNL1       -0.5170
     28 O          21.2873   72.5555    0.3501 O.3     1  UNL1       -0.2858
     29 O          22.1558   74.6722    0.9620 O.3     1  UNL1       -0.3226
     30 O          18.7380   74.4656    3.2737 O.3     1  UNL1       -0.3794
     31 O          20.4658   72.1292    2.9730 O.3     1  UNL1       -0.3775
     32 O          18.7929   76.1381    0.8966 O.3     1  UNL1       -0.3792
     33 C          19.5551   74.2142    2.1305 C.3     1  UNL1        0.1718
     34 C          20.8069   73.4459    2.5551 C.3     1  UNL1        0.1968
     35 C          19.9404   75.5630    1.5187 C.3     1  UNL1        0.1723
     36 C          21.8118   73.3590    1.4055 C.3     1  UNL1        0.2706
     37 C          21.0368   75.4058    0.4691 C.3     1  UNL1        0.1830
     38 H          18.4809   73.6226    3.6794 H       1  UNL1        0.2105
     39 H          19.8283   72.1769    3.7021 H       1  UNL1        0.2106
     40 H          18.0874   76.2434    1.5539 H       1  UNL1        0.2106
     41 O          21.3146   77.6592    1.0575 O.co2   1  UNL1       -0.5466
     42 O          22.3133   76.9563   -0.8680 O.co2   1  UNL1       -0.5466
     43 C          21.6318   76.7313    0.1209 C.2     1  UNL1        0.0799
@<TRIPOS>UNITY_ATOM_ATTR
2 1
charge -1
26 1
charge -1
41 1
charge -1
@<TRIPOS>BOND
     1     1     4    1
     2     1    24    1
     3     1     2    1
     4     1     3    2
     5    25    28    1
     6    25    24    1
     7    25    26    1
     8    25    27    2
     9     6    11    1
    10     6    12    1
    11    29    36    1
    12    29    37    1
    13     7     9    1
    14     7    13    1
    15     8    10    1
    16     8    14    1
    17     4     5    1
    18    28    36    1
    19    30    33    1
    20    30    38    1
    21    31    34    1
    22    31    39    1
    23    32    35    1
    24    32    40    1
    25    41    43   ar
    26    15    19    2
    27    42    43   ar
    28    16    22    2
    29    17    12    1
    30    17    19   ar
    31    17    20   ar
    32    18    19   ar
    33    18    22   ar
    34    18    23    1
    35     9    10    1
    36     9    11    1
    37    10    12    1
    38    11     5    1
    39    33    34    1
    40    33    35    1
    41    34    36    1
    42    35    37    1
    43    37    43    1
    44    20    21   ar
    45    21    22   ar
@<TRIPOS>MOLECULE
*****
 43 45 0 0 0
SMALL
GASTEIGER

@<TRIPOS>ATOM
      1 P          23.5031   72.4030   -3.4204 P.3     1  UNL1        0.2189
      2 O          24.0664   70.8991   -3.2203 O.co2   1  UNL1       -0.4371
      3 O          24.5196   73.4035   -3.8868 O.2     1  UNL1       -0.5170
      4 O          22.7822   72.7385   -2.0113 O.3     1  UNL1       -0.3112
      5 C          23.5652   72.7271   -0.8317 C.3     1  UNL1        0.1811
      6 O          24.5636   71.0410    0.5604 O.3     1  UNL1       -0.3308
      7 O          21.7641   70.2153    1.2481 O.3     1  UNL1       -0.3794
      8 O          22.5054   71.6796    3.4258 O.3     1  UNL1       -0.3779
      9 C          22.2880   71.5218    1.0091 C.3     1  UNL1        0.1713
     10 C          23.1200   71.9768    2.1894 C.3     1  UNL1        0.1895
     11 C          23.3319   71.4149   -0.0941 C.3     1  UNL1        0.1764
     12 C          24.4130   71.2075    1.9792 C.3     1  UNL1        0.2383
     13 H          21.0949   70.2582    1.9495 H       1  UNL1        0.2105
     14 H          21.6871   72.1942    3.5120 H       1  UNL1        0.2106
     15 O          24.4102   73.9288    2.7346 O.2     1  UNL1       -0.2464
     16 O          28.8593   73.7900    3.9305 O.2     1  UNL1       -0.2670
     17 N          25.5568   71.9078    2.4911 N.ar    1  UNL1       -0.2551
     18 N          26.6264   73.8574    3.3285 N.ar    1  UNL1       -0.2743
     19 C          25.4493   73.2746    2.8409 C.ar    1  UNL1        0.3323
     20 C          26.7667   71.2417    2.6438 C.ar    1  UNL1        0.0869
     21 C          27.8802   71.8106    3.1100 C.ar    1  UNL1        0.0795
     22 C          27.8533   73.2362    3.4976 C.ar    1  UNL1        0.2626
     23 H          26.5767   74.8088    3.5768 H       1  UNL1        0.1734
     24 O          22.2551   72.1923   -4.4259 O.3     1  UNL1       -0.2703
     25 P          21.8469   72.9632   -5.7870 P.3     1  UNL1        0.2208
     26 O          22.9323   72.4214   -6.8588 O.co2   1  UNL1       -0.4371
     27 O          21.7989   74.4581   -5.6574 O.2     1  UNL1       -0.5170
     28 O          20.4546   72.2854   -6.2394 O.3     1  UNL1       -0.2858
     29 O          19.8206   70.1067   -5.5610 O.3     1  UNL1       -0.3226
     30 O          17.4799   70.6555   -8.9208 O.3     1  UNL1       -0.3794
     31 O          20.2725   71.5132   -8.9053 O.3     1  UNL1       -0.3775
     32 O          16.2976   70.8452   -6.2719 O.3     1  UNL1       -0.3792
     33 C          18.1902   71.0535   -7.7482 C.3     1  UNL1        0.1718
     34 C          19.6703   70.7028   -7.9026 C.3     1  UNL1        0.1968
     35 C          17.5883   70.3082   -6.5549 C.3     1  UNL1        0.1723
     36 C          20.4201   70.9018   -6.5847 C.3     1  UNL1        0.2706
     37 C          18.4601   70.4523   -5.3108 C.3     1  UNL1        0.1830
     38 H          17.8452   71.1165   -9.6924 H       1  UNL1        0.2105
     39 H          19.8016   71.3922   -9.7443 H       1  UNL1        0.2106
     40 H          15.7328   70.7598   -7.0558 H       1  UNL1        0.2106
     41 O          18.8804   69.5442   -3.1894 O.co2   1  UNL1       -0.5466
     42 O          17.1036   68.7055   -4.3463 O.co2   1  UNL1       -0.5466
     43 C          18.0523   69.4707   -4.2607 C.2     1  UNL1        0.0799
@<TRIPOS>UNITY_ATOM_ATTR
2 1
charge -1
26 1
charge -1
41 1
charge -1
@<TRIPOS>BOND
     1     1     4    1
     2     1    24    1
     3     1     2    1
     4     1     3    2
     5    25    28    1
     6    25    24    1
     7    25    26    1
     8    25    27    2
     9     6    11    1
    10     6    12    1
    11    29    36    1
    12    29    37    1
    13     7     9    1
    14     7    13    1
    15     8    10    1
    16     8    14    1
    17     4     5    1
    18    28    36    1
    19    30    33    1
    20    30    38    1
    21    31    34    1
    22    31    39    1
    23    32    35    1
    24    32    40    1
    25    41    43   ar
    26    15    19    2
    27    42    43   ar
    28    16    22    2
    29    17    12    1
    30    17    19   ar
    31    17    20   ar
    32    18    19   ar
    33    18    22   ar
    34    18    23    1
    35     9    10    1
    36     9    11    1
    37    10    12    1
    38    11     5    1
    39    33    34    1
    40    33    35    1
    41    34    36    1
    42    35    37    1
    43    37    43    1
    44    20    21   ar
    45    21    22   ar
@<TRIPOS>MOLECULE
*****
 43 45 0 0 0
SMALL
GASTEIGER

@<TRIPOS>ATOM
      1 P          22.2621   74.5019   -4.2222 P.3     1  UNL1        0.2189
      2 O          23.8495   74.5029   -4.5368 O.co2   1  UNL1       -0.4371
      3 O          21.7591   75.7157   -3.4974 O.2     1  UNL1       -0.5170
      4 O          22.0143   73.0865   -3.4785 O.3     1  UNL1       -0.3112
      5 C          22.9173   72.6891   -2.4629 C.3     1  UNL1        0.1811
      6 O          23.3661   70.9771   -0.8365 O.3     1  UNL1       -0.3308
      7 O          20.4081   70.4862   -0.8109 O.3     1  UNL1       -0.3794
      8 O          20.7856   71.9688    1.4464 O.3     1  UNL1       -0.3779
      9 C          21.1187   71.7169   -0.9489 C.3     1  UNL1        0.1713
     10 C          21.7002   72.1387    0.3838 C.3     1  UNL1        0.1895
     11 C          22.3709   71.4465   -1.7717 C.3     1  UNL1        0.1764
     12 C          22.9102   71.2278    0.5024 C.3     1  UNL1        0.2383
     13 H          19.6037   70.6338   -0.2886 H       1  UNL1        0.2105
     14 H          20.0338   72.5705    1.3252 H       1  UNL1        0.2106
     15 O          24.8076   69.7803    2.0127 O.2     1  UNL1       -0.2464
     16 O          26.9561   73.6338    3.3466 O.2     1  UNL1       -0.2670
     17 N          23.9761   71.8276    1.2540 N.ar    1  UNL1       -0.2551
     18 N          25.8752   71.7010    2.6765 N.ar    1  UNL1       -0.2743
     19 C          24.8753   71.0105    1.9790 C.ar    1  UNL1        0.3323
     20 C          24.1237   73.2093    1.2667 C.ar    1  UNL1        0.0869
     21 C          25.0819   73.8531    1.9362 C.ar    1  UNL1        0.0795
     22 C          26.0621   73.0731    2.7199 C.ar    1  UNL1        0.2626
     23 H          26.5120   71.1535    3.1903 H       1  UNL1        0.1734
     24 O          21.6035   74.2668   -5.6796 O.3     1  UNL1       -0.2703
     25 P          22.1369   73.4445   -6.9652 P.3     1  UNL1        0.2208
     26 O          23.0665   72.2935   -6.3085 O.co2   1  UNL1       -0.4371
     27 O          22.8328   74.2904   -7.9919 O.2     1  UNL1       -0.5170
     28 O          20.8404   72.6568   -7.5140 O.3     1  UNL1       -0.2858
     29 O          20.6602   70.7000   -6.1921 O.3     1  UNL1       -0.3226
     30 O          17.3239   70.3918   -8.6091 O.3     1  UNL1       -0.3794
     31 O          19.8824   71.2601   -9.7202 O.3     1  UNL1       -0.3775
     32 O          17.0438   71.2036   -5.8318 O.3     1  UNL1       -0.3792
     33 C          18.3339   71.0702   -7.8623 C.3     1  UNL1        0.1718
     34 C          19.7113   70.7097   -8.4193 C.3     1  UNL1        0.1968
     35 C          18.2184   70.6290   -6.4015 C.3     1  UNL1        0.1723
     36 C          20.8234   71.2305   -7.5079 C.3     1  UNL1        0.2706
     37 C          19.4268   71.0801   -5.5861 C.3     1  UNL1        0.1830
     38 H          17.3779   70.6566   -9.5409 H       1  UNL1        0.2105
     39 H          19.1798   70.9341  -10.3038 H       1  UNL1        0.2106
     40 H          16.2673   70.9243   -6.3416 H       1  UNL1        0.2106
     41 O          20.5575   69.5711   -4.1911 O.co2   1  UNL1       -0.5466
     42 O          18.6445   70.5072   -3.3768 O.co2   1  UNL1       -0.5466
     43 C          19.4698   70.3773   -4.2683 C.2     1  UNL1        0.0799
@<TRIPOS>UNITY_ATOM_ATTR
2 1
charge -1
26 1
charge -1
41 1
charge -1
@<TRIPOS>BOND
     1     1     4    1
     2     1    24    1
     3     1     2    1
     4     1     3    2
     5    25    28    1
     6    25    24    1
     7    25    26    1
     8    25    27    2
     9     6    11    1
    10     6    12    1
    11    29    36    1
    12    29    37    1
    13     7     9    1
    14     7    13    1
    15     8    10    1
    16     8    14    1
    17     4     5    1
    18    28    36    1
    19    30    33    1
    20    30    38    1
    21    31    34    1
    22    31    39    1
    23    32    35    1
    24    32    40    1
    25    41    43   ar
    26    15    19    2
    27    42    43   ar
    28    16    22    2
    29    17    12    1
    30    17    19   ar
    31    17    20   ar
    32    18    19   ar
    33    18    22   ar
    34    18    23    1
    35     9    10    1
    36     9    11    1
    37    10    12    1
    38    11     5    1
    39    33    34    1
    40    33    35    1
    41    34    36    1
    42    35    37    1
    43    37    43    1
    44    20    21   ar
    45    21    22   ar
@<TRIPOS>MOLECULE
*****
 43 45 0 0 0
SMALL
GASTEIGER

@<TRIPOS>ATOM
      1 P          20.8914   71.7099   -5.2321 P.3     1  UNL1        0.2189
      2 O          20.4189   70.3962   -4.4138 O.co2   1  UNL1       -0.4371
      3 O          20.0360   72.9257   -5.0271 O.2     1  UNL1       -0.5170
      4 O          21.0203   71.1909   -6.7592 O.3     1  UNL1       -0.3112
      5 C          20.1227   71.7048   -7.7260 C.3     1  UNL1        0.1811
      6 O          18.7588   69.7735   -7.2932 O.3     1  UNL1       -0.3308
      7 O          17.9197   69.9527  -10.1664 O.3     1  UNL1       -0.3794
      8 O          15.8030   71.0666   -8.8568 O.3     1  UNL1       -0.3779
      9 C          18.2031   71.0021   -9.2406 C.3     1  UNL1        0.1713
     10 C          17.0727   71.1404   -8.2430 C.3     1  UNL1        0.1895
     11 C          19.3558   70.5488   -8.3551 C.3     1  UNL1        0.1764
     12 C          17.3368   69.9759   -7.3037 C.3     1  UNL1        0.2383
     13 H          17.1863   70.2193  -10.7431 H       1  UNL1        0.2105
     14 H          15.6830   71.8297   -9.4443 H       1  UNL1        0.2106
     15 O          16.3753   68.0054   -5.5235 O.2     1  UNL1       -0.2464
     16 O          15.6605   71.1060   -2.1890 O.2     1  UNL1       -0.2670
     17 N          16.8929   70.2406   -5.9644 N.ar    1  UNL1       -0.2551
     18 N          16.0192   69.5517   -3.8648 N.ar    1  UNL1       -0.2743
     19 C          16.4280   69.1794   -5.1521 C.ar    1  UNL1        0.3323
     20 C          16.9221   71.5381   -5.4677 C.ar    1  UNL1        0.0869
     21 C          16.5293   71.8775   -4.2384 C.ar    1  UNL1        0.0795
     22 C          16.0291   70.8282   -3.3262 C.ar    1  UNL1        0.2626
     23 H          15.6897   68.8303   -3.2815 H       1  UNL1        0.1734
     24 O          22.4324   71.8862   -4.7770 O.3     1  UNL1       -0.2703
     25 P          23.1657   73.0634   -3.9462 P.3     1  UNL1        0.2208
     26 O          22.5133   74.4114   -4.5607 O.co2   1  UNL1       -0.4371
     27 O          24.6651   73.0184   -4.0077 O.2     1  UNL1       -0.5170
     28 O          22.5532   72.9565   -2.4577 O.3     1  UNL1       -0.2858
     29 O          22.9064   74.3561   -0.5800 O.3     1  UNL1       -0.3226
     30 O          22.2901   70.6849    1.2119 O.3     1  UNL1       -0.3794
     31 O          23.9359   70.9018   -1.1920 O.3     1  UNL1       -0.3775
     32 O          20.1906   72.6954    1.2445 O.3     1  UNL1       -0.3792
     33 C          22.1238   71.6924    0.2142 C.3     1  UNL1        0.1718
     34 C          23.4766   72.0083   -0.4244 C.3     1  UNL1        0.1968
     35 C          21.5510   72.9392    0.8920 C.3     1  UNL1        0.1723
     36 C          23.3804   73.2370   -1.3299 C.3     1  UNL1        0.2706
     37 C          21.6054   74.1511   -0.0336 C.3     1  UNL1        0.1830
     38 H          22.6532   69.8828    0.8043 H       1  UNL1        0.2105
     39 H          23.9990   70.1185   -0.6237 H       1  UNL1        0.2106
     40 H          20.1420   71.9262    1.8335 H       1  UNL1        0.2106
     41 O          21.4072   75.1815    2.0641 O.co2   1  UNL1       -0.5466
     42 O          21.1457   76.5054    0.2262 O.co2   1  UNL1       -0.5466
     43 C          21.3592   75.4123    0.7287 C.2     1  UNL1        0.0799
@<TRIPOS>UNITY_ATOM_ATTR
2 1
charge -1
26 1
charge -1
41 1
charge -1
@<TRIPOS>BOND
     1     1     4    1
     2     1    24    1
     3     1     2    1
     4     1     3    2
     5    25    28    1
     6    25    24    1
     7    25    26    1
     8    25    27    2
     9     6    11    1
    10     6    12    1
    11    29    36    1
    12    29    37    1
    13     7     9    1
    14     7    13    1
    15     8    10    1
    16     8    14    1
    17     4     5    1
    18    28    36    1
    19    30    33    1
    20    30    38    1
    21    31    34    1
    22    31    39    1
    23    32    35    1
    24    32    40    1
    25    41    43   ar
    26    15    19    2
    27    42    43   ar
    28    16    22    2
    29    17    12    1
    30    17    19   ar
    31    17    20   ar
    32    18    19   ar
    33    18    22   ar
    34    18    23    1
    35     9    10    1
    36     9    11    1
    37    10    12    1
    38    11     5    1
    39    33    34    1
    40    33    35    1
    41    34    36    1
    42    35    37    1
    43    37    43    1
    44    20    21   ar
    45    21    22   ar
@<TRIPOS>MOLECULE
*****
 43 45 0 0 0
SMALL
GASTEIGER

@<TRIPOS>ATOM
      1 P          23.5528   72.3688   -3.4204 P.3     1  UNL1        0.2189
      2 O          24.1033   70.8639   -3.1943 O.co2   1  UNL1       -0.4371
      3 O          24.5987   73.3757   -3.7999 O.2     1  UNL1       -0.5170
      4 O          22.7284   72.6886   -2.0654 O.3     1  UNL1       -0.3112
      5 C          23.4431   72.7910   -0.8475 C.3     1  UNL1        0.1811
      6 O          24.4902   71.2664    0.6877 O.3     1  UNL1       -0.3308
      7 O          21.7368   70.2062    1.2227 O.3     1  UNL1       -0.3794
      8 O          22.1811   71.8226    3.3734 O.3     1  UNL1       -0.3779
      9 C          22.1536   71.5458    0.9579 C.3     1  UNL1        0.1713
     10 C          22.8529   72.1262    2.1688 C.3     1  UNL1        0.1895
     11 C          23.2795   71.4938   -0.0658 C.3     1  UNL1        0.1764
     12 C          24.2232   71.4758    2.0835 C.3     1  UNL1        0.2383
     13 H          21.0178   70.2137    1.8743 H       1  UNL1        0.2105
     14 H          21.3147   72.2599    3.3794 H       1  UNL1        0.2106
     15 O          26.9164   70.6778    2.3779 O.2     1  UNL1       -0.2464
     16 O          28.1060   74.7303    4.2235 O.2     1  UNL1       -0.2670
     17 N          25.2576   72.3025    2.6379 N.ar    1  UNL1       -0.2551
     18 N          27.5061   72.6966    3.2977 N.ar    1  UNL1       -0.2743
     19 C          26.5785   71.8059    2.7415 C.ar    1  UNL1        0.3323
     20 C          24.9602   73.5893    3.0701 C.ar    1  UNL1        0.0869
     21 C          25.8551   74.4266    3.5981 C.ar    1  UNL1        0.0795
     22 C          27.2578   73.9851    3.7425 C.ar    1  UNL1        0.2626
     23 H          28.4320   72.3726    3.3820 H       1  UNL1        0.1734
     24 O          22.3834   72.1663   -4.5179 O.3     1  UNL1       -0.2703
     25 P          21.9458   73.0738   -5.7823 P.3     1  UNL1        0.2208
     26 O          23.0299   72.6753   -6.9164 O.co2   1  UNL1       -0.4371
     27 O          21.8703   74.5441   -5.4884 O.2     1  UNL1       -0.5170
     28 O          20.5621   72.4216   -6.2948 O.3     1  UNL1       -0.2858
     29 O          19.6233   70.2742   -5.9534 O.3     1  UNL1       -0.3226
     30 O          18.3589   71.1445   -9.7891 O.3     1  UNL1       -0.3794
     31 O          21.0848   71.7761   -8.9492 O.3     1  UNL1       -0.3775
     32 O          16.4964   71.3190   -7.5639 O.3     1  UNL1       -0.3792
     33 C          18.7364   71.4365   -8.4436 C.3     1  UNL1        0.1718
     34 C          20.1744   70.9758   -8.2040 C.3     1  UNL1        0.1968
     35 C          17.7770   70.6931   -7.5114 C.3     1  UNL1        0.1723
     36 C          20.5360   71.0604   -6.7205 C.3     1  UNL1        0.2706
     37 C          18.2726   70.7164   -6.0683 C.3     1  UNL1        0.1830
     38 H          18.9549   71.6062  -10.3997 H       1  UNL1        0.2105
     39 H          20.8610   71.7273   -9.8915 H       1  UNL1        0.2106
     40 H          16.1698   71.3110   -8.4771 H       1  UNL1        0.2106
     41 O          16.6333   69.0405   -5.9912 O.co2   1  UNL1       -0.5466
     42 O          17.6873   69.5553   -4.0359 O.co2   1  UNL1       -0.5466
     43 C          17.5240   69.7282   -5.2344 C.2     1  UNL1        0.0799
@<TRIPOS>UNITY_ATOM_ATTR
2 1
charge -1
26 1
charge -1
41 1
charge -1
@<TRIPOS>BOND
     1     1     4    1
     2     1    24    1
     3     1     2    1
     4     1     3    2
     5    25    28    1
     6    25    24    1
     7    25    26    1
     8    25    27    2
     9     6    11    1
    10     6    12    1
    11    29    36    1
    12    29    37    1
    13     7     9    1
    14     7    13    1
    15     8    10    1
    16     8    14    1
    17     4     5    1
    18    28    36    1
    19    30    33    1
    20    30    38    1
    21    31    34    1
    22    31    39    1
    23    32    35    1
    24    32    40    1
    25    41    43   ar
    26    15    19    2
    27    42    43   ar
    28    16    22    2
    29    17    12    1
    30    17    19   ar
    31    17    20   ar
    32    18    19   ar
    33    18    22   ar
    34    18    23    1
    35     9    10    1
    36     9    11    1
    37    10    12    1
    38    11     5    1
    39    33    34    1
    40    33    35    1
    41    34    36    1
    42    35    37    1
    43    37    43    1
    44    20    21   ar
    45    21    22   ar
@<TRIPOS>MOLECULE
*****
 43 45 0 0 0
SMALL
GASTEIGER

@<TRIPOS>ATOM
      1 P          20.7473   73.7769   -4.4944 P.3     1  UNL1        0.2189
      2 O          20.5577   75.3723   -4.6883 O.co2   1  UNL1       -0.4371
      3 O          21.1808   73.0362   -5.7253 O.2     1  UNL1       -0.5170
      4 O          19.3473   73.2957   -3.8415 O.3     1  UNL1       -0.3112
      5 C          19.1093   71.9073   -3.6994 C.3     1  UNL1        0.1811
      6 O          17.2165   71.9018   -5.1810 O.3     1  UNL1       -0.3308
      7 O          15.8590   70.1752   -3.1396 O.3     1  UNL1       -0.3794
      8 O          16.6484   68.3655   -5.0206 O.3     1  UNL1       -0.3779
      9 C          17.2309   70.1994   -3.5341 C.3     1  UNL1        0.1713
     10 C          17.3965   69.5567   -4.8949 C.3     1  UNL1        0.1895
     11 C          17.6131   71.6459   -3.8163 C.3     1  UNL1        0.1764
     12 C          16.9077   70.6549   -5.8239 C.3     1  UNL1        0.2383
     13 H          15.5916   69.2610   -2.9540 H       1  UNL1        0.2105
     14 H          16.9985   67.6979   -4.4092 H       1  UNL1        0.2106
     15 O          15.5454   70.5979   -8.2972 O.2     1  UNL1       -0.2464
     16 O          19.4920   70.5113  -10.6765 O.2     1  UNL1       -0.2670
     17 N          17.5545   70.6173   -7.1049 N.ar    1  UNL1       -0.2551
     18 N          17.5123   70.5538   -9.4799 N.ar    1  UNL1       -0.2743
     19 C          16.7778   70.5906   -8.2873 C.ar    1  UNL1        0.3323
     20 C          18.9420   70.6088   -7.1813 C.ar    1  UNL1        0.0869
     21 C          19.6279   70.5737   -8.3254 C.ar    1  UNL1        0.0795
     22 C          18.8920   70.5433   -9.6064 C.ar    1  UNL1        0.2626
     23 H          16.9933   70.5327  -10.3163 H       1  UNL1        0.1734
     24 O          21.7786   73.6821   -3.2533 O.3     1  UNL1       -0.2703
     25 P          22.9806   72.6447   -2.9489 P.3     1  UNL1        0.2208
     26 O          24.3010   73.5787   -3.0157 O.co2   1  UNL1       -0.4371
     27 O          23.0161   71.4570   -3.8665 O.2     1  UNL1       -0.5170
     28 O          22.8194   72.2788   -1.3860 O.3     1  UNL1       -0.2858
     29 O          22.6807   74.1403    0.0716 O.3     1  UNL1       -0.3226
     30 O          23.1426   71.0179    2.7372 O.3     1  UNL1       -0.3794
     31 O          24.7174   71.1111    0.2784 O.3     1  UNL1       -0.3775
     32 O          20.5364   72.2535    2.3747 O.3     1  UNL1       -0.3792
     33 C          22.7110   71.6492    1.5317 C.3     1  UNL1        0.1718
     34 C          23.9246   72.1848    0.7717 C.3     1  UNL1        0.1968
     35 C          21.7706   72.7960    1.9090 C.3     1  UNL1        0.1723
     36 C          23.4907   73.0638   -0.4022 C.3     1  UNL1        0.2706
     37 C          21.4858   73.6994    0.7126 C.3     1  UNL1        0.1830
     38 H          23.7416   70.2855    2.5223 H       1  UNL1        0.2105
     39 H          24.9960   70.5492    1.0179 H       1  UNL1        0.2106
     40 H          20.7036   71.6764    3.1361 H       1  UNL1        0.2106
     41 O          20.8693   75.0814    2.5047 O.co2   1  UNL1       -0.5466
     42 O          20.3774   75.8203    0.4044 O.co2   1  UNL1       -0.5466
     43 C          20.8499   74.9778    1.1528 C.2     1  UNL1        0.0799
@<TRIPOS>UNITY_ATOM_ATTR
2 1
charge -1
26 1
charge -1
41 1
charge -1
@<TRIPOS>BOND
     1     1     4    1
     2     1    24    1
     3     1     2    1
     4     1     3    2
     5    25    28    1
     6    25    24    1
     7    25    26    1
     8    25    27    2
     9     6    11    1
    10     6    12    1
    11    29    36    1
    12    29    37    1
    13     7     9    1
    14     7    13    1
    15     8    10    1
    16     8    14    1
    17     4     5    1
    18    28    36    1
    19    30    33    1
    20    30    38    1
    21    31    34    1
    22    31    39    1
    23    32    35    1
    24    32    40    1
    25    41    43   ar
    26    15    19    2
    27    42    43   ar
    28    16    22    2
    29    17    12    1
    30    17    19   ar
    31    17    20   ar
    32    18    19   ar
    33    18    22   ar
    34    18    23    1
    35     9    10    1
    36     9    11    1
    37    10    12    1
    38    11     5    1
    39    33    34    1
    40    33    35    1
    41    34    36    1
    42    35    37    1
    43    37    43    1
    44    20    21   ar
    45    21    22   ar
