@<TRIPOS>MOLECULE
UD2
 46 48 0 0 0
SMALL
GASTEIGER

@<TRIPOS>ATOM
      1 P          20.4275   71.5593   -2.8447 P.3     1  UNL1        0.2189
      2 O          20.5910   70.0389   -3.3479 O.3     1  UNL1       -0.4371
      3 O          21.4931   72.3943   -3.4414 O.2     1  UNL1       -0.5170
      4 O          18.9879   72.1222   -3.2970 O.3     1  UNL1       -0.3112
      5 C          17.7791   71.8135   -2.6007 C.3     1  UNL1        0.1811
      6 C          16.7307   70.4994   -5.7804 C.3     1  UNL1        0.2383
      7 C          17.1403   69.2508   -4.9586 C.3     1  UNL1        0.1895
      8 O          16.3692   68.1112   -5.3438 O.3     1  UNL1       -0.3779
      9 C          16.7980   69.6863   -3.5128 C.3     1  UNL1        0.1713
     10 C          16.7619   71.2250   -3.5816 C.3     1  UNL1        0.1764
     11 O          17.1042   71.6014   -4.9250 O.3     1  UNL1       -0.3308
     12 O          15.5224   69.1725   -3.1258 O.3     1  UNL1       -0.3794
     13 H          16.5892   67.3047   -4.8582 H       1  UNL1        0.2106
     14 H          15.4708   68.2072   -3.1227 H       1  UNL1        0.2105
     15 N          17.4713   70.5518   -7.0429 N.ar    1  UNL1       -0.2551
     16 C          16.8005   70.5874   -8.2080 C.ar    1  UNL1        0.3323
     17 N          17.4553   70.6356   -9.3832 N.ar    1  UNL1       -0.2743
     18 C          18.8036   70.6509   -9.4088 C.ar    1  UNL1        0.2626
     19 C          19.5224   70.6149   -8.1898 C.ar    1  UNL1        0.0795
     20 C          18.8400   70.5711   -7.0262 C.ar    1  UNL1        0.0869
     21 O          15.5847   70.5743   -8.2000 O.2     1  UNL1       -0.2464
     22 O          19.3974   70.6950  -10.4718 O.2     1  UNL1       -0.2670
     23 H          16.9562   70.6596  -10.2142 H       1  UNL1        0.1734
     24 O          20.5420   71.6088   -1.2392 O.3     1  UNL1       -0.2703
     25 P          21.7342   71.3260   -0.1943 P.3     1  UNL1        0.2208
     26 O          21.3066   70.1302    0.7962 O.3     1  UNL1       -0.4371
     27 O          22.9567   70.9407   -0.9327 O.2     1  UNL1       -0.5170
     28 O          22.0223   72.6574    0.6642 O.3     1  UNL1       -0.2865
     29 C          22.1784   72.6494    2.0843 C.3     1  UNL1        0.2611
     30 C          22.3994   74.0797    2.5824 C.3     1  UNL1        0.1582
     31 C          23.6944   74.6282    1.9753 C.3     1  UNL1        0.1625
     32 C          24.8532   73.6988    2.3463 C.3     1  UNL1        0.1686
     33 C          24.5376   72.2828    1.8570 C.3     1  UNL1        0.1760
     34 O          23.9471   75.9366    2.4925 O.3     1  UNL1       -0.3801
     35 O          25.0216   73.6881    3.7650 O.3     1  UNL1       -0.3794
     36 O          23.3062   71.8445    2.4346 O.3     1  UNL1       -0.3263
     37 H          24.7533   76.3458    2.1492 H       1  UNL1        0.2105
     38 H          25.7402   73.1178    4.0722 H       1  UNL1        0.2105
     39 C          20.4503   75.4467    3.1020 C.2     1  UNL1        0.2231
     40 C          19.2910   76.3112    2.6812 C.3     1  UNL1        0.0946
     41 N          21.2718   74.9203    2.1723 N.am    1  UNL1       -0.2994
     42 O          20.6452   75.2236    4.2786 O.2     1  UNL1       -0.2751
     43 H          21.1158   75.0976    1.2314 H       1  UNL1        0.1496
     44 C          25.6635   71.3358    2.2763 C.3     1  UNL1        0.1693
     45 O          25.1057   70.0927    2.7074 O.3     1  UNL1       -0.3794
     46 H          25.7636   69.4422    2.9887 H       1  UNL1        0.2105
@<TRIPOS>BOND
     1    29    30    1
     2    30    41    1
     3    30    31    1
     4    31    34    1
     5    31    32    1
     6    32    35    1
     7    32    33    1
     8    33    36    1
     9    33    44    1
    10    39    40    1
    11    39    42    2
    12    39    41   am
    13    41    43    1
    14    29    28    1
    15    34    37    1
    16    35    38    1
    17    29    36    1
    18    44    45    1
    19    45    46    1
    20    15     6    1
    21    15    16   ar
    22    16    21    2
    23    16    17   ar
    24    17    23    1
    25    17    18   ar
    26    18    19   ar
    27    19    20   ar
    28    15    20   ar
    29    18    22    2
    30     6     7    1
    31     6    11    1
    32     7     9    1
    33     7     8    1
    34     8    13    1
    35     9    10    1
    36     9    12    1
    37    10     5    1
    38    10    11    1
    39    12    14    1
    40     5     4    1
    41     4     1    1
    42     1     2    1
    43     1    24    1
    44     1     3    2
    45    24    25    1
    46    28    25    1
    47    25    26    1
    48    25    27    2
@<TRIPOS>MOLECULE
UD2
 46 48 0 0 0
SMALL
GASTEIGER

@<TRIPOS>ATOM
      1 P          20.4857   71.1460   -3.6312 P.3     1  UNL1        0.2189
      2 O          20.7683   69.8410   -4.5304 O.3     1  UNL1       -0.4371
      3 O          20.2428   72.3096   -4.5121 O.2     1  UNL1       -0.5170
      4 O          19.1904   70.8915   -2.7086 O.3     1  UNL1       -0.3112
      5 C          18.0607   71.7662   -2.6968 C.3     1  UNL1        0.1811
      6 C          16.8196   70.4727   -5.8150 C.3     1  UNL1        0.2383
      7 C          17.2140   69.2145   -5.0005 C.3     1  UNL1        0.1895
      8 O          16.3807   68.1047   -5.3408 O.3     1  UNL1       -0.3779
      9 C          16.9541   69.6745   -3.5451 C.3     1  UNL1        0.1713
     10 C          16.9779   71.2128   -3.6265 C.3     1  UNL1        0.1764
     11 O          17.2753   71.5647   -4.9871 O.3     1  UNL1       -0.3308
     12 O          15.6771   69.2165   -3.0976 O.3     1  UNL1       -0.3794
     13 H          16.5888   67.2935   -4.8579 H       1  UNL1        0.2106
     14 H          15.5864   68.2542   -3.0833 H       1  UNL1        0.2105
     15 N          17.5050   70.4851   -7.1093 N.ar    1  UNL1       -0.2551
     16 C          16.7846   70.5107   -8.2447 C.ar    1  UNL1        0.3323
     17 N          17.3880   70.5225   -9.4479 N.ar    1  UNL1       -0.2743
     18 C          18.7339   70.5105   -9.5324 C.ar    1  UNL1        0.2626
     19 C          19.5046   70.4846   -8.3453 C.ar    1  UNL1        0.0795
     20 C          18.8733   70.4776   -7.1525 C.ar    1  UNL1        0.0869
     21 O          15.5703   70.5220   -8.1836 O.2     1  UNL1       -0.2464
     22 O          19.2813   70.5215  -10.6209 O.2     1  UNL1       -0.2670
     23 H          16.8535   70.5397  -10.2567 H       1  UNL1        0.1734
     24 O          21.7621   71.4391   -2.6940 O.3     1  UNL1       -0.2703
     25 P          23.2751   71.9094   -2.9809 P.3     1  UNL1        0.2208
     26 O          24.2379   70.6192   -3.0279 O.3     1  UNL1       -0.4371
     27 O          23.3346   72.6160   -4.2792 O.2     1  UNL1       -0.5170
     28 O          23.7609   72.8995   -1.8078 O.3     1  UNL1       -0.2865
     29 C          22.8767   73.7904   -1.1252 C.3     1  UNL1        0.2611
     30 C          23.6931   74.8435   -0.3721 C.3     1  UNL1        0.1582
     31 C          24.5583   74.1476    0.6832 C.3     1  UNL1        0.1625
     32 C          23.6539   73.3379    1.6163 C.3     1  UNL1        0.1686
     33 C          22.8388   72.3426    0.7863 C.3     1  UNL1        0.1760
     34 O          25.2691   75.1297    1.4407 O.3     1  UNL1       -0.3801
     35 O          22.7691   74.2207    2.3085 O.3     1  UNL1       -0.3794
     36 O          22.0810   73.0518   -0.1958 O.3     1  UNL1       -0.3263
     37 H          25.8389   74.7587    2.1283 H       1  UNL1        0.2105
     38 H          22.1648   73.7746    2.9184 H       1  UNL1        0.2105
     39 C          24.4132   76.8919   -1.4780 C.2     1  UNL1        0.2231
     40 C          25.2981   77.6310   -2.4472 C.3     1  UNL1        0.0946
     41 N          24.5541   75.5616   -1.3152 N.am    1  UNL1       -0.2994
     42 O          23.5726   77.4942   -0.8432 O.2     1  UNL1       -0.2751
     43 H          25.2253   75.0795   -1.8232 H       1  UNL1        0.1496
     44 C          21.8890   71.5707    1.7043 C.3     1  UNL1        0.1693
     45 O          21.6440   70.2741    1.1557 O.3     1  UNL1       -0.3794
     46 H          21.0484   69.7279    1.6867 H       1  UNL1        0.2105
@<TRIPOS>BOND
     1    29    30    1
     2    30    41    1
     3    30    31    1
     4    31    34    1
     5    31    32    1
     6    32    35    1
     7    32    33    1
     8    33    36    1
     9    33    44    1
    10    39    40    1
    11    39    42    2
    12    39    41   am
    13    41    43    1
    14    29    28    1
    15    34    37    1
    16    35    38    1
    17    29    36    1
    18    44    45    1
    19    45    46    1
    20    15     6    1
    21    15    16   ar
    22    16    21    2
    23    16    17   ar
    24    17    23    1
    25    17    18   ar
    26    18    19   ar
    27    19    20   ar
    28    15    20   ar
    29    18    22    2
    30     6     7    1
    31     6    11    1
    32     7     9    1
    33     7     8    1
    34     8    13    1
    35     9    10    1
    36     9    12    1
    37    10     5    1
    38    10    11    1
    39    12    14    1
    40     5     4    1
    41     4     1    1
    42     1     2    1
    43     1    24    1
    44     1     3    2
    45    24    25    1
    46    28    25    1
    47    25    26    1
    48    25    27    2
@<TRIPOS>MOLECULE
UD2
 46 48 0 0 0
SMALL
GASTEIGER

@<TRIPOS>ATOM
      1 P          21.0305   72.0369   -2.0139 P.3     1  UNL1        0.2189
      2 O          21.8361   70.8138   -2.6820 O.3     1  UNL1       -0.4371
      3 O          21.3719   73.2945   -2.7146 O.2     1  UNL1       -0.5170
      4 O          19.4475   71.7671   -2.1362 O.3     1  UNL1       -0.3112
      5 C          18.8964   70.4714   -2.3789 C.3     1  UNL1        0.1811
      6 C          17.1472   70.4953   -5.5215 C.3     1  UNL1        0.2383
      7 C          17.0269   69.0339   -5.0197 C.3     1  UNL1        0.1895
      8 O          15.8081   68.4389   -5.4694 O.3     1  UNL1       -0.3779
      9 C          17.0177   69.2176   -3.4823 C.3     1  UNL1        0.1713
     10 C          17.6552   70.6032   -3.2648 C.3     1  UNL1        0.1764
     11 O          18.0280   71.1101   -4.5562 O.3     1  UNL1       -0.3308
     12 O          15.6783   69.1993   -2.9858 O.3     1  UNL1       -0.3794
     13 H          15.6871   67.5239   -5.1815 H       1  UNL1        0.2106
     14 H          15.2090   68.3700   -3.1486 H       1  UNL1        0.2105
     15 N          17.7407   70.5339   -6.8599 N.ar    1  UNL1       -0.2551
     16 C          16.9477   70.4521   -7.9431 C.ar    1  UNL1        0.3323
     17 N          17.4659   70.4848   -9.1852 N.ar    1  UNL1       -0.2743
     18 C          18.7976   70.6029   -9.3621 C.ar    1  UNL1        0.2626
     19 C          19.6440   70.6911   -8.2307 C.ar    1  UNL1        0.0795
     20 C          19.0969   70.6600   -6.9974 C.ar    1  UNL1        0.0869
     21 O          15.7452   70.3455   -7.7986 O.2     1  UNL1       -0.2464
     22 O          19.2679   70.6331  -10.4857 O.2     1  UNL1       -0.2670
     23 H          16.8800   70.4234   -9.9553 H       1  UNL1        0.1734
     24 O          21.4346   72.1611   -0.4601 O.3     1  UNL1       -0.2703
     25 P          22.3329   71.2702    0.5360 P.3     1  UNL1        0.2208
     26 O          21.5655   69.8924    0.8624 O.3     1  UNL1       -0.4371
     27 O          23.6318   70.9707   -0.1054 O.2     1  UNL1       -0.5170
     28 O          22.5837   72.0823    1.9036 O.3     1  UNL1       -0.2865
     29 C          22.2263   73.4555    2.0703 C.3     1  UNL1        0.2611
     30 C          23.4308   74.3408    1.7412 C.3     1  UNL1        0.1582
     31 C          24.5639   74.0324    2.7247 C.3     1  UNL1        0.1625
     32 C          24.0581   74.2482    4.1537 C.3     1  UNL1        0.1686
     33 C          22.8291   73.3662    4.3898 C.3     1  UNL1        0.1760
     34 O          25.6666   74.9061    2.4714 O.3     1  UNL1       -0.3801
     35 O          23.7032   75.6206    4.3326 O.3     1  UNL1       -0.3794
     36 O          21.8253   73.6821    3.4231 O.3     1  UNL1       -0.3263
     37 H          26.4220   74.7657    3.0586 H       1  UNL1        0.2105
     38 H          23.3727   75.8299    5.2175 H       1  UNL1        0.2105
     39 C          23.9233   75.0614   -0.5338 C.2     1  UNL1        0.2231
     40 C          24.3859   74.7803   -1.9393 C.3     1  UNL1        0.0946
     41 N          23.8807   74.0665    0.3742 N.am    1  UNL1       -0.2994
     42 O          23.5885   76.1842   -0.2183 O.2     1  UNL1       -0.2751
     43 H          24.1473   73.1685    0.1221 H       1  UNL1        0.1496
     44 C          22.2818   73.6203    5.7956 C.3     1  UNL1        0.1693
     45 O          20.8653   73.7986    5.7311 O.3     1  UNL1       -0.3794
     46 H          20.4498   73.9643    6.5883 H       1  UNL1        0.2105
@<TRIPOS>BOND
     1    29    30    1
     2    30    41    1
     3    30    31    1
     4    31    34    1
     5    31    32    1
     6    32    35    1
     7    32    33    1
     8    33    36    1
     9    33    44    1
    10    39    40    1
    11    39    42    2
    12    39    41   am
    13    41    43    1
    14    29    28    1
    15    34    37    1
    16    35    38    1
    17    29    36    1
    18    44    45    1
    19    45    46    1
    20    15     6    1
    21    15    16   ar
    22    16    21    2
    23    16    17   ar
    24    17    23    1
    25    17    18   ar
    26    18    19   ar
    27    19    20   ar
    28    15    20   ar
    29    18    22    2
    30     6     7    1
    31     6    11    1
    32     7     9    1
    33     7     8    1
    34     8    13    1
    35     9    10    1
    36     9    12    1
    37    10     5    1
    38    10    11    1
    39    12    14    1
    40     5     4    1
    41     4     1    1
    42     1     2    1
    43     1    24    1
    44     1     3    2
    45    24    25    1
    46    28    25    1
    47    25    26    1
    48    25    27    2
@<TRIPOS>MOLECULE
UD2
 46 48 0 0 0
SMALL
GASTEIGER

@<TRIPOS>ATOM
      1 P          22.9575   73.3793   -4.4990 P.3     1  UNL1        0.2189
      2 O          23.3221   74.5152   -5.5799 O.3     1  UNL1       -0.4371
      3 O          24.1169   72.4780   -4.3194 O.2     1  UNL1       -0.5170
      4 O          22.5948   74.0742   -3.0922 O.3     1  UNL1       -0.3112
      5 C          21.5787   73.5774   -2.2191 C.3     1  UNL1        0.1811
      6 C          23.3830   71.6402    0.2158 C.3     1  UNL1        0.2383
      7 C          21.9615   71.7924    0.8145 C.3     1  UNL1        0.1895
      8 O          21.6211   70.6588    1.6149 O.3     1  UNL1       -0.3779
      9 C          21.0787   71.8569   -0.4559 C.3     1  UNL1        0.1713
     10 C          22.0549   72.2745   -1.5721 C.3     1  UNL1        0.1764
     11 O          23.3410   72.4725   -0.9637 O.3     1  UNL1       -0.3308
     12 O          20.5153   70.5746   -0.7374 O.3     1  UNL1       -0.3794
     13 H          20.7410   70.7074    2.0120 H       1  UNL1        0.2106
     14 H          19.9380   70.2361   -0.0398 H       1  UNL1        0.2105
     15 N          24.3939   72.1283    1.1564 N.ar    1  UNL1       -0.2551
     16 C          25.0854   71.2513    1.9058 C.ar    1  UNL1        0.3323
     17 N          26.0201   71.6717    2.7786 N.ar    1  UNL1       -0.2743
     18 C          26.2796   72.9882    2.9134 C.ar    1  UNL1        0.2626
     19 C          25.5599   73.9223    2.1301 C.ar    1  UNL1        0.0795
     20 C          24.6314   73.4725    1.2601 C.ar    1  UNL1        0.0869
     21 O          24.8621   70.0613    1.7946 O.2     1  UNL1       -0.2464
     22 O          27.1257   73.3700    3.7027 O.2     1  UNL1       -0.2670
     23 H          26.5087   71.0261    3.3121 H       1  UNL1        0.1734
     24 O          21.6922   72.5296   -5.0191 O.3     1  UNL1       -0.2703
     25 P          20.3731   72.8945   -5.8675 P.3     1  UNL1        0.2208
     26 O          19.9489   74.4193   -5.5698 O.3     1  UNL1       -0.4371
     27 O          20.6547   72.7343   -7.3109 O.2     1  UNL1       -0.5170
     28 O          19.1721   71.9100   -5.4420 O.3     1  UNL1       -0.2865
     29 C          19.2341   70.4917   -5.6028 C.3     1  UNL1        0.2611
     30 C          18.1682   70.0439   -6.6059 C.3     1  UNL1        0.1582
     31 C          16.7820   70.3892   -6.0530 C.3     1  UNL1        0.1625
     32 C          16.6089   69.7223   -4.6857 C.3     1  UNL1        0.1686
     33 C          17.7351   70.1827   -3.7564 C.3     1  UNL1        0.1760
     34 O          15.7776   69.9087   -6.9494 O.3     1  UNL1       -0.3801
     35 O          16.6636   68.3026   -4.8363 O.3     1  UNL1       -0.3794
     36 O          18.9971   69.8592   -4.3434 O.3     1  UNL1       -0.3263
     37 H          14.8731   70.0938   -6.6616 H       1  UNL1        0.2105
     38 H          16.5614   67.8142   -4.0074 H       1  UNL1        0.2105
     39 C          18.9466   70.0902   -8.9145 C.2     1  UNL1        0.2231
     40 C          19.1580   70.8018  -10.2250 C.3     1  UNL1        0.0946
     41 N          18.3737   70.7369   -7.8802 N.am    1  UNL1       -0.2994
     42 O          19.2921   68.9338   -8.7893 O.2     1  UNL1       -0.2751
     43 H          18.0982   71.6617   -7.9795 H       1  UNL1        0.1496
     44 C          17.6036   69.4749   -2.4065 C.3     1  UNL1        0.1693
     45 O          16.2656   68.9992   -2.2456 O.3     1  UNL1       -0.3794
     46 H          16.1092   68.5388   -1.4098 H       1  UNL1        0.2105
@<TRIPOS>BOND
     1    29    30    1
     2    30    41    1
     3    30    31    1
     4    31    34    1
     5    31    32    1
     6    32    35    1
     7    32    33    1
     8    33    36    1
     9    33    44    1
    10    39    40    1
    11    39    42    2
    12    39    41   am
    13    41    43    1
    14    29    28    1
    15    34    37    1
    16    35    38    1
    17    29    36    1
    18    44    45    1
    19    45    46    1
    20    15     6    1
    21    15    16   ar
    22    16    21    2
    23    16    17   ar
    24    17    23    1
    25    17    18   ar
    26    18    19   ar
    27    19    20   ar
    28    15    20   ar
    29    18    22    2
    30     6     7    1
    31     6    11    1
    32     7     9    1
    33     7     8    1
    34     8    13    1
    35     9    10    1
    36     9    12    1
    37    10     5    1
    38    10    11    1
    39    12    14    1
    40     5     4    1
    41     4     1    1
    42     1     2    1
    43     1    24    1
    44     1     3    2
    45    24    25    1
    46    28    25    1
    47    25    26    1
    48    25    27    2
@<TRIPOS>MOLECULE
UD2
 46 48 0 0 0
SMALL
GASTEIGER

@<TRIPOS>ATOM
      1 P          23.5483   71.9340   -3.0140 P.3     1  UNL1        0.2189
      2 O          24.3326   72.9409   -3.9950 O.3     1  UNL1       -0.4371
      3 O          24.2178   70.6147   -3.0225 O.2     1  UNL1       -0.5170
      4 O          23.5544   72.5294   -1.5177 O.3     1  UNL1       -0.3112
      5 C          23.4141   71.7109   -0.3550 C.3     1  UNL1        0.1811
      6 C          25.0503   73.2308    2.4645 C.3     1  UNL1        0.2383
      7 C          25.1697   74.2817    1.3315 C.3     1  UNL1        0.1895
      8 O          25.1779   75.6075    1.8644 O.3     1  UNL1       -0.3779
      9 C          23.8818   74.0238    0.5117 C.3     1  UNL1        0.1713
     10 C          23.4710   72.5898    0.8969 C.3     1  UNL1        0.1764
     11 O          24.4674   72.0878    1.8017 O.3     1  UNL1       -0.3308
     12 O          22.8613   74.9531    0.8803 O.3     1  UNL1       -0.3794
     13 H          25.2516   76.3005    1.1944 H       1  UNL1        0.2106
     14 H          23.0912   75.8772    0.7143 H       1  UNL1        0.2105
     15 N          26.3720   72.8981    3.0008 N.ar    1  UNL1       -0.2551
     16 C          26.9238   73.6799    3.9458 C.ar    1  UNL1        0.3323
     17 N          28.1371   73.3981    4.4564 N.ar    1  UNL1       -0.2743
     18 C          28.8208   72.3186    4.0255 C.ar    1  UNL1        0.2626
     19 C          28.2514   71.4863    3.0319 C.ar    1  UNL1        0.0795
     20 C          27.0316   71.7902    2.5407 C.ar    1  UNL1        0.0869
     21 O          26.3186   74.6564    4.3439 O.2     1  UNL1       -0.2464
     22 O          29.9188   72.0622    4.4871 O.2     1  UNL1       -0.2670
     23 H          28.5209   73.9730    5.1363 H       1  UNL1        0.1734
     24 O          22.0281   71.7680   -3.5187 O.3     1  UNL1       -0.2703
     25 P          20.7307   72.7214   -3.4911 P.3     1  UNL1        0.2208
     26 O          20.7313   73.5886   -2.1340 O.3     1  UNL1       -0.4371
     27 O          20.7620   73.6312   -4.6571 O.2     1  UNL1       -0.5170
     28 O          19.3994   71.8177   -3.5505 O.3     1  UNL1       -0.2865
     29 C          19.3797   70.4952   -4.0907 C.3     1  UNL1        0.2611
     30 C          18.6776   70.5089   -5.4507 C.3     1  UNL1        0.1582
     31 C          17.2247   70.9555   -5.2611 C.3     1  UNL1        0.1625
     32 C          16.5395   70.0175   -4.2636 C.3     1  UNL1        0.1686
     33 C          17.3242   70.0228   -2.9490 C.3     1  UNL1        0.1760
     34 O          16.5411   70.9007   -6.5152 O.3     1  UNL1       -0.3801
     35 O          16.5095   68.6925   -4.7971 O.3     1  UNL1       -0.3794
     36 O          18.6743   69.6279   -3.2004 O.3     1  UNL1       -0.3263
     37 H          15.6139   71.1718   -6.4695 H       1  UNL1        0.2105
     38 H          16.0889   68.0432   -4.2160 H       1  UNL1        0.2105
     39 C          20.3740   71.0100   -7.1266 C.2     1  UNL1        0.2231
     40 C          21.0802   71.9698   -8.0479 C.3     1  UNL1        0.0946
     41 N          19.3642   71.4432   -6.3464 N.am    1  UNL1       -0.2994
     42 O          20.7142   69.8461   -7.0865 O.2     1  UNL1       -0.2751
     43 H          19.0925   72.3739   -6.3774 H       1  UNL1        0.1496
     44 C          16.6802   69.0424   -1.9669 C.3     1  UNL1        0.1693
     45 O          15.2649   69.0291   -2.1651 O.3     1  UNL1       -0.3794
     46 H          14.7902   68.4280   -1.5750 H       1  UNL1        0.2105
@<TRIPOS>BOND
     1    29    30    1
     2    30    41    1
     3    30    31    1
     4    31    34    1
     5    31    32    1
     6    32    35    1
     7    32    33    1
     8    33    36    1
     9    33    44    1
    10    39    40    1
    11    39    42    2
    12    39    41   am
    13    41    43    1
    14    29    28    1
    15    34    37    1
    16    35    38    1
    17    29    36    1
    18    44    45    1
    19    45    46    1
    20    15     6    1
    21    15    16   ar
    22    16    21    2
    23    16    17   ar
    24    17    23    1
    25    17    18   ar
    26    18    19   ar
    27    19    20   ar
    28    15    20   ar
    29    18    22    2
    30     6     7    1
    31     6    11    1
    32     7     9    1
    33     7     8    1
    34     8    13    1
    35     9    10    1
    36     9    12    1
    37    10     5    1
    38    10    11    1
    39    12    14    1
    40     5     4    1
    41     4     1    1
    42     1     2    1
    43     1    24    1
    44     1     3    2
    45    24    25    1
    46    28    25    1
    47    25    26    1
    48    25    27    2
@<TRIPOS>MOLECULE
UD2
 46 48 0 0 0
SMALL
GASTEIGER

@<TRIPOS>ATOM
      1 P          20.4265   70.7761   -3.3108 P.3     1  UNL1        0.2189
      2 O          20.6569   69.5419   -4.3183 O.3     1  UNL1       -0.4371
      3 O          20.4621   72.0459   -4.0692 O.2     1  UNL1       -0.5170
      4 O          18.9942   70.6208   -2.5910 O.3     1  UNL1       -0.3112
      5 C          17.9740   71.6182   -2.6670 C.3     1  UNL1        0.1811
      6 C          16.7765   70.5246   -5.8774 C.3     1  UNL1        0.2383
      7 C          17.0605   69.2141   -5.1003 C.3     1  UNL1        0.1895
      8 O          16.1738   68.1730   -5.5147 O.3     1  UNL1       -0.3779
      9 C          16.7736   69.6344   -3.6379 C.3     1  UNL1        0.1713
     10 C          16.8958   71.1700   -3.6566 C.3     1  UNL1        0.1764
     11 O          17.2667   71.5535   -4.9903 O.3     1  UNL1       -0.3308
     12 O          15.4544   69.2417   -3.2556 O.3     1  UNL1       -0.3794
     13 H          16.3126   67.3326   -5.0575 H       1  UNL1        0.2106
     14 H          15.3037   68.2872   -3.2832 H       1  UNL1        0.2105
     15 N          17.5109   70.5425   -7.1444 N.ar    1  UNL1       -0.2551
     16 C          16.8343   70.5474   -8.3068 C.ar    1  UNL1        0.3323
     17 N          17.4833   70.5635   -9.4861 N.ar    1  UNL1       -0.2743
     18 C          18.8313   70.5768   -9.5188 C.ar    1  UNL1        0.2626
     19 C          19.5562   70.5729   -8.3028 C.ar    1  UNL1        0.0795
     20 C          18.8797   70.5609   -7.1351 C.ar    1  UNL1        0.0869
     21 O          15.6185   70.5357   -8.2924 O.2     1  UNL1       -0.2464
     22 O          19.4199   70.5918  -10.5855 O.2     1  UNL1       -0.2670
     23 H          16.9800   70.5656  -10.3149 H       1  UNL1        0.1734
     24 O          21.5886   70.7835   -2.1961 O.3     1  UNL1       -0.2703
     25 P          22.9944   71.5555   -2.0519 P.3     1  UNL1        0.2208
     26 O          24.1281   70.7635   -2.8773 O.3     1  UNL1       -0.4371
     27 O          22.8616   72.9273   -2.5892 O.2     1  UNL1       -0.5170
     28 O          23.4114   71.6252   -0.4982 O.3     1  UNL1       -0.2865
     29 C          23.4821   72.8497    0.2346 C.3     1  UNL1        0.2611
     30 C          23.8913   72.5574    1.6802 C.3     1  UNL1        0.1582
     31 C          22.8196   71.6828    2.3382 C.3     1  UNL1        0.1625
     32 C          21.4683   72.3975    2.2507 C.3     1  UNL1        0.1686
     33 C          21.1524   72.6960    0.7826 C.3     1  UNL1        0.1760
     34 O          23.1570   71.4658    3.7102 O.3     1  UNL1       -0.3801
     35 O          21.5267   73.6214    2.9855 O.3     1  UNL1       -0.3794
     36 O          22.2028   73.4864    0.2222 O.3     1  UNL1       -0.3263
     37 H          22.5204   70.9178    4.1894 H       1  UNL1        0.2105
     38 H          20.7028   74.1283    2.9727 H       1  UNL1        0.2105
     39 C          26.1276   72.1993    2.5793 C.2     1  UNL1        0.2231
     40 C          27.4473   71.4735    2.5924 C.3     1  UNL1        0.0946
     41 N          25.1749   71.8510    1.6922 N.am    1  UNL1       -0.2994
     42 O          25.9217   73.0983    3.3678 O.2     1  UNL1       -0.2751
     43 H          25.3394   71.1330    1.0610 H       1  UNL1        0.1496
     44 C          19.8320   73.4631    0.6911 C.3     1  UNL1        0.1693
     45 O          19.2549   73.2669   -0.6015 O.3     1  UNL1       -0.3794
     46 H          18.4135   73.7256   -0.7310 H       1  UNL1        0.2105
@<TRIPOS>BOND
     1    29    30    1
     2    30    41    1
     3    30    31    1
     4    31    34    1
     5    31    32    1
     6    32    35    1
     7    32    33    1
     8    33    36    1
     9    33    44    1
    10    39    40    1
    11    39    42    2
    12    39    41   am
    13    41    43    1
    14    29    28    1
    15    34    37    1
    16    35    38    1
    17    29    36    1
    18    44    45    1
    19    45    46    1
    20    15     6    1
    21    15    16   ar
    22    16    21    2
    23    16    17   ar
    24    17    23    1
    25    17    18   ar
    26    18    19   ar
    27    19    20   ar
    28    15    20   ar
    29    18    22    2
    30     6     7    1
    31     6    11    1
    32     7     9    1
    33     7     8    1
    34     8    13    1
    35     9    10    1
    36     9    12    1
    37    10     5    1
    38    10    11    1
    39    12    14    1
    40     5     4    1
    41     4     1    1
    42     1     2    1
    43     1    24    1
    44     1     3    2
    45    24    25    1
    46    28    25    1
    47    25    26    1
    48    25    27    2
@<TRIPOS>MOLECULE
UD2
 46 48 0 0 0
SMALL
GASTEIGER

@<TRIPOS>ATOM
      1 P          20.6361   73.1165   -0.5904 P.3     1  UNL1        0.2189
      2 O          19.0742   72.7448   -0.7073 O.3     1  UNL1       -0.4371
      3 O          20.8842   74.4192   -1.2464 O.2     1  UNL1       -0.5170
      4 O          21.0505   73.2103    0.9630 O.3     1  UNL1       -0.3112
      5 C          22.2801   73.7876    1.4058 C.3     1  UNL1        0.1811
      6 C          25.4647   72.2422    2.0437 C.3     1  UNL1        0.2383
      7 C          24.4326   71.2976    2.7104 C.3     1  UNL1        0.1895
      8 O          24.8894   69.9439    2.6854 O.3     1  UNL1       -0.3779
      9 C          23.1917   71.4787    1.8023 C.3     1  UNL1        0.1713
     10 C          23.4330   72.8284    1.0997 C.3     1  UNL1        0.1764
     11 O          24.6635   73.3637    1.6125 O.3     1  UNL1       -0.3308
     12 O          23.1164   70.4219    0.8440 O.3     1  UNL1       -0.3794
     13 H          24.2782   69.3147    3.0917 H       1  UNL1        0.2106
     14 H          23.0236   69.5422    1.2339 H       1  UNL1        0.2105
     15 N          26.4737   72.6715    3.0146 N.ar    1  UNL1       -0.2551
     16 C          27.6111   71.9666    3.1496 C.ar    1  UNL1        0.3323
     17 N          28.5555   72.3380    4.0341 N.ar    1  UNL1       -0.2743
     18 C          28.3737   73.4316    4.8020 C.ar    1  UNL1        0.2626
     19 C          27.1816   74.1836    4.6696 C.ar    1  UNL1        0.0795
     20 C          26.2537   73.7906    3.7718 C.ar    1  UNL1        0.0869
     21 O          27.7885   70.9784    2.4637 O.2     1  UNL1       -0.2464
     22 O          29.2279   73.7690    5.6026 O.2     1  UNL1       -0.2670
     23 H          29.3692   71.8177    4.1196 H       1  UNL1        0.1734
     24 O          21.5149   71.9760   -1.3117 O.3     1  UNL1       -0.2703
     25 P          21.9614   71.7050   -2.8349 P.3     1  UNL1        0.2208
     26 O          22.6763   73.0213   -3.4264 O.3     1  UNL1       -0.4371
     27 O          22.9081   70.5691   -2.8771 O.2     1  UNL1       -0.5170
     28 O          20.6629   71.3551   -3.7205 O.3     1  UNL1       -0.2865
     29 C          19.8978   72.3479   -4.4062 C.3     1  UNL1        0.2611
     30 C          18.5576   71.7502   -4.8412 C.3     1  UNL1        0.1582
     31 C          18.8147   70.6019   -5.8218 C.3     1  UNL1        0.1625
     32 C          19.6272   71.1296   -7.0075 C.3     1  UNL1        0.1686
     33 C          20.9265   71.7513   -6.4888 C.3     1  UNL1        0.1760
     34 O          17.5667   70.0856   -6.2900 O.3     1  UNL1       -0.3801
     35 O          18.8681   72.1196   -7.7038 O.3     1  UNL1       -0.3794
     36 O          20.6171   72.7912   -5.5587 O.3     1  UNL1       -0.3263
     37 H          17.6543   69.3535   -6.9157 H       1  UNL1        0.2105
     38 H          19.3231   72.4991   -8.4687 H       1  UNL1        0.2105
     39 C          18.0071   69.9594   -3.2831 C.2     1  UNL1        0.2231
     40 C          17.2747   69.4352   -2.0758 C.3     1  UNL1        0.0946
     41 N          17.8447   71.2410   -3.6669 N.am    1  UNL1       -0.2994
     42 O          18.7438   69.2278   -3.9109 O.2     1  UNL1       -0.2751
     43 H          17.2550   71.8260   -3.1659 H       1  UNL1        0.1496
     44 C          21.7166   72.3344   -7.6619 C.3     1  UNL1        0.1693
     45 O          23.0549   72.6122   -7.2448 O.3     1  UNL1       -0.3794
     46 H          23.6146   72.9850   -7.9395 H       1  UNL1        0.2105
@<TRIPOS>BOND
     1    29    30    1
     2    30    41    1
     3    30    31    1
     4    31    34    1
     5    31    32    1
     6    32    35    1
     7    32    33    1
     8    33    36    1
     9    33    44    1
    10    39    40    1
    11    39    42    2
    12    39    41   am
    13    41    43    1
    14    29    28    1
    15    34    37    1
    16    35    38    1
    17    29    36    1
    18    44    45    1
    19    45    46    1
    20    15     6    1
    21    15    16   ar
    22    16    21    2
    23    16    17   ar
    24    17    23    1
    25    17    18   ar
    26    18    19   ar
    27    19    20   ar
    28    15    20   ar
    29    18    22    2
    30     6     7    1
    31     6    11    1
    32     7     9    1
    33     7     8    1
    34     8    13    1
    35     9    10    1
    36     9    12    1
    37    10     5    1
    38    10    11    1
    39    12    14    1
    40     5     4    1
    41     4     1    1
    42     1     2    1
    43     1    24    1
    44     1     3    2
    45    24    25    1
    46    28    25    1
    47    25    26    1
    48    25    27    2
@<TRIPOS>MOLECULE
UD2
 46 48 0 0 0
SMALL
GASTEIGER

@<TRIPOS>ATOM
      1 P          23.2980   71.8098   -3.1247 P.3     1  UNL1        0.2189
      2 O          24.1123   73.0066   -3.8289 O.3     1  UNL1       -0.4371
      3 O          24.1770   70.6276   -2.9885 O.2     1  UNL1       -0.5170
      4 O          22.8041   72.2823   -1.6665 O.3     1  UNL1       -0.3112
      5 C          23.4895   73.2718   -0.8967 C.3     1  UNL1        0.1811
      6 C          24.6781   73.4890    2.4910 C.3     1  UNL1        0.2383
      7 C          23.2765   74.1495    2.5267 C.3     1  UNL1        0.1895
      8 O          22.6550   73.9590    3.7992 O.3     1  UNL1       -0.3779
      9 C          22.5218   73.3711    1.4213 C.3     1  UNL1        0.1713
     10 C          23.6426   72.7802    0.5448 C.3     1  UNL1        0.1764
     11 O          24.8933   73.2345    1.0859 O.3     1  UNL1       -0.3308
     12 O          21.7329   72.3279    1.9958 O.3     1  UNL1       -0.3794
     13 H          21.7760   74.3549    3.8712 H       1  UNL1        0.2106
     14 H          21.0488   72.6400    2.6033 H       1  UNL1        0.2105
     15 N          25.6942   74.4066    3.0111 N.ar    1  UNL1       -0.2551
     16 C          25.9366   75.5644    2.3712 C.ar    1  UNL1        0.3323
     17 N          26.8649   76.4265    2.8266 N.ar    1  UNL1       -0.2743
     18 C          27.5689   76.1399    3.9405 C.ar    1  UNL1        0.2626
     19 C          27.3233   74.9251    4.6247 C.ar    1  UNL1        0.0795
     20 C          26.3839   74.0814    4.1481 C.ar    1  UNL1        0.0869
     21 O          25.3093   75.8360    1.3657 O.2     1  UNL1       -0.2464
     22 O          28.4090   76.9194    4.3540 O.2     1  UNL1       -0.2670
     23 H          27.0280   77.2564    2.3524 H       1  UNL1        0.1734
     24 O          22.0194   71.4273   -4.0258 O.3     1  UNL1       -0.2703
     25 P          20.9929   72.2787   -4.9284 P.3     1  UNL1        0.2208
     26 O          21.0061   73.8163   -4.4495 O.3     1  UNL1       -0.4371
     27 O          21.4024   72.2012   -6.3478 O.2     1  UNL1       -0.5170
     28 O          19.5082   71.6776   -4.7641 O.3     1  UNL1       -0.2865
     29 C          19.1933   70.3047   -5.0034 C.3     1  UNL1        0.2611
     30 C          18.1839   70.2040   -6.1496 C.3     1  UNL1        0.1582
     31 C          16.8892   70.9140   -5.7421 C.3     1  UNL1        0.1625
     32 C          16.3621   70.2884   -4.4478 C.3     1  UNL1        0.1686
     33 C          17.4420   70.3859   -3.3670 C.3     1  UNL1        0.1760
     34 O          15.9153   70.7618   -6.7773 O.3     1  UNL1       -0.3801
     35 O          16.0386   68.9159   -4.6780 O.3     1  UNL1       -0.3794
     36 O          18.6290   69.7329   -3.8215 O.3     1  UNL1       -0.3263
     37 H          15.0688   71.1885   -6.5862 H       1  UNL1        0.2105
     38 H          15.6983   68.4552   -3.8983 H       1  UNL1        0.2105
     39 C          18.6212   70.2413   -8.5465 C.2     1  UNL1        0.2231
     40 C          19.1894   70.8978   -9.7773 C.3     1  UNL1        0.0946
     41 N          18.7370   70.8431   -7.3463 N.am    1  UNL1       -0.2994
     42 O          18.0587   69.1698   -8.6351 O.2     1  UNL1       -0.2751
     43 H          19.1875   71.6993   -7.2748 H       1  UNL1        0.1496
     44 C          16.9454   69.7096   -2.0877 C.3     1  UNL1        0.1693
     45 O          17.3673   68.3443   -2.0752 O.3     1  UNL1       -0.3794
     46 H          17.0871   67.8526   -1.2912 H       1  UNL1        0.2105
@<TRIPOS>BOND
     1    29    30    1
     2    30    41    1
     3    30    31    1
     4    31    34    1
     5    31    32    1
     6    32    35    1
     7    32    33    1
     8    33    36    1
     9    33    44    1
    10    39    40    1
    11    39    42    2
    12    39    41   am
    13    41    43    1
    14    29    28    1
    15    34    37    1
    16    35    38    1
    17    29    36    1
    18    44    45    1
    19    45    46    1
    20    15     6    1
    21    15    16   ar
    22    16    21    2
    23    16    17   ar
    24    17    23    1
    25    17    18   ar
    26    18    19   ar
    27    19    20   ar
    28    15    20   ar
    29    18    22    2
    30     6     7    1
    31     6    11    1
    32     7     9    1
    33     7     8    1
    34     8    13    1
    35     9    10    1
    36     9    12    1
    37    10     5    1
    38    10    11    1
    39    12    14    1
    40     5     4    1
    41     4     1    1
    42     1     2    1
    43     1    24    1
    44     1     3    2
    45    24    25    1
    46    28    25    1
    47    25    26    1
    48    25    27    2
@<TRIPOS>MOLECULE
UD2
 46 48 0 0 0
SMALL
GASTEIGER

@<TRIPOS>ATOM
      1 P          22.5435   71.5378   -2.7352 P.3     1  UNL1        0.2189
      2 O          22.4556   73.1451   -2.7223 O.3     1  UNL1       -0.4371
      3 O          23.8156   71.1177   -3.3630 O.2     1  UNL1       -0.5170
      4 O          22.4825   70.9850   -1.2238 O.3     1  UNL1       -0.3112
      5 C          21.2609   70.8452   -0.4961 C.3     1  UNL1        0.1811
      6 C          23.1637   72.1444    2.2658 C.3     1  UNL1        0.2383
      7 C          22.8046   73.3918    1.4189 C.3     1  UNL1        0.1895
      8 O          22.6688   74.5485    2.2467 O.3     1  UNL1       -0.3779
      9 C          21.4411   72.9876    0.8065 C.3     1  UNL1        0.1713
     10 C          21.4272   71.4499    0.9002 C.3     1  UNL1        0.1764
     11 O          22.6856   71.0441    1.4618 O.3     1  UNL1       -0.3308
     12 O          20.3679   73.5452    1.5667 O.3     1  UNL1       -0.3794
     13 H          22.4450   75.3549    1.7626 H       1  UNL1        0.2106
     14 H          20.3626   74.5116    1.5910 H       1  UNL1        0.2105
     15 N          24.6125   72.0516    2.4586 N.ar    1  UNL1       -0.2551
     16 C          25.2531   70.9082    2.1565 C.ar    1  UNL1        0.3323
     17 N          26.5840   70.7947    2.3240 N.ar    1  UNL1       -0.2743
     18 C          27.2995   71.8345    2.7990 C.ar    1  UNL1        0.2626
     19 C          26.6382   73.0443    3.1201 C.ar    1  UNL1        0.0795
     20 C          25.3037   73.1315    2.9383 C.ar    1  UNL1        0.0869
     21 O          24.6208   69.9626    1.7272 O.2     1  UNL1       -0.2464
     22 O          28.5041   71.7331    2.9506 O.2     1  UNL1       -0.2670
     23 H          27.0300   69.9628    2.1023 H       1  UNL1        0.1734
     24 O          21.3067   70.9392   -3.5751 O.3     1  UNL1       -0.2703
     25 P          19.7088   71.1208   -3.4949 P.3     1  UNL1        0.2208
     26 O          19.1231   70.1987   -2.3115 O.3     1  UNL1       -0.4371
     27 O          19.3863   72.5383   -3.2205 O.2     1  UNL1       -0.5170
     28 O          19.0477   70.6810   -4.8957 O.3     1  UNL1       -0.2865
     29 C          18.2783   71.5707   -5.7067 C.3     1  UNL1        0.2611
     30 C          16.8448   71.0468   -5.8220 C.3     1  UNL1        0.1582
     31 C          16.8636   69.6821   -6.5175 C.3     1  UNL1        0.1625
     32 C          17.5405   69.8264   -7.8833 C.3     1  UNL1        0.1686
     33 C          18.9476   70.3974   -7.6884 C.3     1  UNL1        0.1760
     34 O          15.5231   69.2187   -6.6954 O.3     1  UNL1       -0.3801
     35 O          16.7753   70.7102   -8.7046 O.3     1  UNL1       -0.3794
     36 O          18.8610   71.6516   -7.0091 O.3     1  UNL1       -0.3263
     37 H          15.4596   68.3573   -7.1302 H       1  UNL1        0.2105
     38 H          17.1470   70.8489   -9.5870 H       1  UNL1        0.2105
     39 C          16.2935   69.7124   -3.8591 C.2     1  UNL1        0.2231
     40 C          15.6989   69.5672   -2.4829 C.3     1  UNL1        0.0946
     41 N          16.2660   70.9063   -4.4835 N.am    1  UNL1       -0.2994
     42 O          16.7977   68.7541   -4.4064 O.2     1  UNL1       -0.2751
     43 H          15.8622   71.6726   -4.0467 H       1  UNL1        0.1496
     44 C          19.6087   70.6006   -9.0529 C.3     1  UNL1        0.1693
     45 O          18.7401   71.3609   -9.8955 O.3     1  UNL1       -0.3794
     46 H          19.0957   71.5284  -10.7789 H       1  UNL1        0.2105
@<TRIPOS>BOND
     1    29    30    1
     2    30    41    1
     3    30    31    1
     4    31    34    1
     5    31    32    1
     6    32    35    1
     7    32    33    1
     8    33    36    1
     9    33    44    1
    10    39    40    1
    11    39    42    2
    12    39    41   am
    13    41    43    1
    14    29    28    1
    15    34    37    1
    16    35    38    1
    17    29    36    1
    18    44    45    1
    19    45    46    1
    20    15     6    1
    21    15    16   ar
    22    16    21    2
    23    16    17   ar
    24    17    23    1
    25    17    18   ar
    26    18    19   ar
    27    19    20   ar
    28    15    20   ar
    29    18    22    2
    30     6     7    1
    31     6    11    1
    32     7     9    1
    33     7     8    1
    34     8    13    1
    35     9    10    1
    36     9    12    1
    37    10     5    1
    38    10    11    1
    39    12    14    1
    40     5     4    1
    41     4     1    1
    42     1     2    1
    43     1    24    1
    44     1     3    2
    45    24    25    1
    46    28    25    1
    47    25    26    1
    48    25    27    2
@<TRIPOS>MOLECULE
UD2
 46 48 0 0 0
SMALL
GASTEIGER

@<TRIPOS>ATOM
      1 P          23.0386   72.0797   -3.4908 P.3     1  UNL1        0.2189
      2 O          24.1765   72.6138   -4.4965 O.3     1  UNL1       -0.4371
      3 O          23.4631   70.7890   -2.9053 O.2     1  UNL1       -0.5170
      4 O          22.8152   73.1555   -2.3134 O.3     1  UNL1       -0.3112
      5 C          22.0231   72.8868   -1.1551 C.3     1  UNL1        0.1811
      6 C          24.2832   71.9291    1.4738 C.3     1  UNL1        0.2383
      7 C          22.8997   72.0262    2.1655 C.3     1  UNL1        0.1895
      8 O          22.8067   71.1030    3.2522 O.3     1  UNL1       -0.3779
      9 C          21.9352   71.6307    1.0207 C.3     1  UNL1        0.1713
     10 C          22.7514   71.8792   -0.2621 C.3     1  UNL1        0.1764
     11 O          24.0246   72.4111    0.1373 O.3     1  UNL1       -0.3308
     12 O          21.5750   70.2522    1.1256 O.3     1  UNL1       -0.3794
     13 H          21.9594   71.1263    3.7171 H       1  UNL1        0.2106
     14 H          21.1101   70.0275    1.9428 H       1  UNL1        0.2105
     15 N          25.2598   72.7848    2.1514 N.ar    1  UNL1       -0.2551
     16 C          26.3667   72.2389    2.6859 C.ar    1  UNL1        0.3323
     17 N          27.2809   73.0013    3.3145 N.ar    1  UNL1       -0.2743
     18 C          27.0993   74.3336    3.4162 C.ar    1  UNL1        0.2626
     19 C          25.9392   74.9217    2.8572 C.ar    1  UNL1        0.0795
     20 C          25.0413   74.1339    2.2289 C.ar    1  UNL1        0.0869
     21 O          26.5436   71.0389    2.6015 O.2     1  UNL1       -0.2464
     22 O          27.9262   75.0248    3.9845 O.2     1  UNL1       -0.2670
     23 H          28.0728   72.5913    3.6954 H       1  UNL1        0.1734
     24 O          21.6606   71.8756   -4.2988 O.3     1  UNL1       -0.2703
     25 P          20.1735   71.4247   -3.8768 P.3     1  UNL1        0.2208
     26 O          20.2608   70.2625   -2.7652 O.3     1  UNL1       -0.4371
     27 O          19.4452   72.5855   -3.3197 O.2     1  UNL1       -0.5170
     28 O          19.3927   70.8717   -5.1718 O.3     1  UNL1       -0.2865
     29 C          18.4378   71.6494   -5.8960 C.3     1  UNL1        0.2611
     30 C          17.0462   71.0340   -5.7307 C.3     1  UNL1        0.1582
     31 C          17.0468   69.6236   -6.3285 C.3     1  UNL1        0.1625
     32 C          17.4756   69.7031   -7.7962 C.3     1  UNL1        0.1686
     33 C          18.8511   70.3700   -7.8819 C.3     1  UNL1        0.1760
     34 O          15.7319   69.0692   -6.2445 O.3     1  UNL1       -0.3801
     35 O          16.5236   70.4746   -8.5309 O.3     1  UNL1       -0.3794
     36 O          18.7890   71.6651   -7.2812 O.3     1  UNL1       -0.3263
     37 H          15.6590   68.1748   -6.6050 H       1  UNL1        0.2105
     38 H          16.7329   70.5674   -9.4709 H       1  UNL1        0.2105
     39 C          16.9136   69.8192   -3.6225 C.2     1  UNL1        0.2231
     40 C          16.5675   69.7445   -2.1585 C.3     1  UNL1        0.0946
     41 N          16.7090   70.9620   -4.3067 N.am    1  UNL1       -0.2994
     42 O          17.3770   68.8501   -4.1866 O.2     1  UNL1       -0.2751
     43 H          16.3376   71.7367   -3.8563 H       1  UNL1        0.1496
     44 C          19.2605   70.5073   -9.3496 C.3     1  UNL1        0.1693
     45 O          18.4589   71.5106   -9.9766 O.3     1  UNL1       -0.3794
     46 H          18.6640   71.6516  -10.9110 H       1  UNL1        0.2105
@<TRIPOS>BOND
     1    29    30    1
     2    30    41    1
     3    30    31    1
     4    31    34    1
     5    31    32    1
     6    32    35    1
     7    32    33    1
     8    33    36    1
     9    33    44    1
    10    39    40    1
    11    39    42    2
    12    39    41   am
    13    41    43    1
    14    29    28    1
    15    34    37    1
    16    35    38    1
    17    29    36    1
    18    44    45    1
    19    45    46    1
    20    15     6    1
    21    15    16   ar
    22    16    21    2
    23    16    17   ar
    24    17    23    1
    25    17    18   ar
    26    18    19   ar
    27    19    20   ar
    28    15    20   ar
    29    18    22    2
    30     6     7    1
    31     6    11    1
    32     7     9    1
    33     7     8    1
    34     8    13    1
    35     9    10    1
    36     9    12    1
    37    10     5    1
    38    10    11    1
    39    12    14    1
    40     5     4    1
    41     4     1    1
    42     1     2    1
    43     1    24    1
    44     1     3    2
    45    24    25    1
    46    28    25    1
    47    25    26    1
    48    25    27    2
@<TRIPOS>MOLECULE
UD2
 46 48 0 0 0
SMALL
GASTEIGER

@<TRIPOS>ATOM
      1 P          22.4703   73.4505   -1.4037 P.3     1  UNL1        0.2189
      2 O          23.9630   74.0456   -1.4994 O.3     1  UNL1       -0.4371
      3 O          21.5593   74.4856   -0.8675 O.2     1  UNL1       -0.5170
      4 O          21.9746   73.0068   -2.8704 O.3     1  UNL1       -0.3112
      5 C          21.3375   71.7545   -3.1295 C.3     1  UNL1        0.1811
      6 C          20.3793   71.0732   -6.5287 C.3     1  UNL1        0.2383
      7 C          20.8189   72.5594   -6.5381 C.3     1  UNL1        0.1895
      8 O          21.3727   72.9195   -7.8051 O.3     1  UNL1       -0.3779
      9 C          21.9038   72.5847   -5.4337 C.3     1  UNL1        0.1713
     10 C          21.6003   71.3393   -4.5792 C.3     1  UNL1        0.1764
     11 O          20.4281   70.7178   -5.1298 O.3     1  UNL1       -0.3308
     12 O          23.2066   72.4898   -6.0120 O.3     1  UNL1       -0.3794
     13 H          21.6620   73.8403   -7.8609 H       1  UNL1        0.2106
     14 H          23.4279   73.2190   -6.6067 H       1  UNL1        0.2105
     15 N          19.0174   70.9349   -7.0493 N.ar    1  UNL1       -0.2551
     16 C          18.8118   70.3024   -8.2183 C.ar    1  UNL1        0.3323
     17 N          17.5710   70.1608   -8.7207 N.ar    1  UNL1       -0.2743
     18 C          16.5081   70.6534   -8.0527 C.ar    1  UNL1        0.2626
     19 C          16.7097   71.3206   -6.8205 C.ar    1  UNL1        0.0795
     20 C          17.9642   71.4444   -6.3384 C.ar    1  UNL1        0.0869
     21 O          19.7609   69.8530   -8.8313 O.2     1  UNL1       -0.2464
     22 O          15.3844   70.5256   -8.5061 O.2     1  UNL1       -0.2670
     23 H          17.4406   69.7031   -9.5654 H       1  UNL1        0.1734
     24 O          22.4640   72.1709   -0.4260 O.3     1  UNL1       -0.2703
     25 P          21.7371   71.8351    0.9710 P.3     1  UNL1        0.2208
     26 O          20.2338   72.4124    0.9456 O.3     1  UNL1       -0.4371
     27 O          21.6987   70.3694    1.1677 O.2     1  UNL1       -0.5170
     28 O          22.5542   72.5179    2.1788 O.3     1  UNL1       -0.2865
     29 C          23.1116   73.8309    2.0973 C.3     1  UNL1        0.2611
     30 C          24.1606   74.0102    3.1974 C.3     1  UNL1        0.1582
     31 C          23.4823   73.8769    4.5643 C.3     1  UNL1        0.1625
     32 C          22.3539   74.9069    4.6649 C.3     1  UNL1        0.1686
     33 C          21.3742   74.6930    3.5079 C.3     1  UNL1        0.1760
     34 O          24.4405   74.1158    5.5978 O.3     1  UNL1       -0.3801
     35 O          22.9016   76.2244    4.5901 O.3     1  UNL1       -0.3794
     36 O          22.0746   74.7995    2.2669 O.3     1  UNL1       -0.3263
     37 H          24.0791   74.0468    6.4922 H       1  UNL1        0.2105
     38 H          22.2415   76.9294    4.6467 H       1  UNL1        0.2105
     39 C          26.4919   73.3017    3.2267 C.2     1  UNL1        0.2231
     40 C          27.5545   72.2435    3.0868 C.3     1  UNL1        0.0946
     41 N          25.1937   72.9803    3.0609 N.am    1  UNL1       -0.2994
     42 O          26.8044   74.4444    3.4887 O.2     1  UNL1       -0.2751
     43 H          24.9435   72.0670    2.8505 H       1  UNL1        0.1496
     44 C          20.2757   75.7561    3.5669 C.3     1  UNL1        0.1693
     45 O          20.6846   76.9062    2.8237 O.3     1  UNL1       -0.3794
     46 H          20.0351   77.6226    2.8176 H       1  UNL1        0.2105
@<TRIPOS>BOND
     1    29    30    1
     2    30    41    1
     3    30    31    1
     4    31    34    1
     5    31    32    1
     6    32    35    1
     7    32    33    1
     8    33    36    1
     9    33    44    1
    10    39    40    1
    11    39    42    2
    12    39    41   am
    13    41    43    1
    14    29    28    1
    15    34    37    1
    16    35    38    1
    17    29    36    1
    18    44    45    1
    19    45    46    1
    20    15     6    1
    21    15    16   ar
    22    16    21    2
    23    16    17   ar
    24    17    23    1
    25    17    18   ar
    26    18    19   ar
    27    19    20   ar
    28    15    20   ar
    29    18    22    2
    30     6     7    1
    31     6    11    1
    32     7     9    1
    33     7     8    1
    34     8    13    1
    35     9    10    1
    36     9    12    1
    37    10     5    1
    38    10    11    1
    39    12    14    1
    40     5     4    1
    41     4     1    1
    42     1     2    1
    43     1    24    1
    44     1     3    2
    45    24    25    1
    46    28    25    1
    47    25    26    1
    48    25    27    2
@<TRIPOS>MOLECULE
UD2
 46 48 0 0 0
SMALL
GASTEIGER

@<TRIPOS>ATOM
      1 P          22.6132   71.0652    0.2351 P.3     1  UNL1        0.2189
      2 O          24.1486   70.6534    0.4886 O.3     1  UNL1       -0.4371
      3 O          21.7256   70.1440    0.9784 O.2     1  UNL1       -0.5170
      4 O          22.3708   72.5731    0.7461 O.3     1  UNL1       -0.3112
      5 C          22.2173   72.9109    2.1259 C.3     1  UNL1        0.1811
      6 C          25.1788   74.7926    2.9168 C.3     1  UNL1        0.2383
      7 C          25.0998   74.8226    1.3692 C.3     1  UNL1        0.1895
      8 O          25.6625   76.0303    0.8530 O.3     1  UNL1       -0.3779
      9 C          23.5723   74.7745    1.1205 C.3     1  UNL1        0.1713
     10 C          22.9963   74.1939    2.4262 C.3     1  UNL1        0.1764
     11 O          24.1059   73.9010    3.2902 O.3     1  UNL1       -0.3308
     12 O          23.0628   76.0889    0.8896 O.3     1  UNL1       -0.3794
     13 H          25.6369   76.0958   -0.1112 H       1  UNL1        0.2106
     14 H          23.4364   76.5254    0.1121 H       1  UNL1        0.2105
     15 N          26.4699   74.2596    3.3571 N.ar    1  UNL1       -0.2551
     16 C          26.7761   72.9721    3.1175 C.ar    1  UNL1        0.3323
     17 N          27.9552   72.4555    3.5111 N.ar    1  UNL1       -0.2743
     18 C          28.8539   73.2283    4.1545 C.ar    1  UNL1        0.2626
     19 C          28.5452   74.5856    4.4123 C.ar    1  UNL1        0.0795
     20 C          27.3572   75.0781    4.0027 C.ar    1  UNL1        0.0869
     21 O          25.9755   72.2637    2.5382 O.2     1  UNL1       -0.2464
     22 O          29.9216   72.7620    4.5108 O.2     1  UNL1       -0.2670
     23 H          28.1595   71.5248    3.3314 H       1  UNL1        0.1734
     24 O          22.2855   70.9734   -1.3389 O.3     1  UNL1       -0.2703
     25 P          23.0062   71.5339   -2.6653 P.3     1  UNL1        0.2208
     26 O          23.3342   73.0993   -2.4766 O.3     1  UNL1       -0.4371
     27 O          24.2647   70.7909   -2.8946 O.2     1  UNL1       -0.5170
     28 O          22.0291   71.3385   -3.9301 O.3     1  UNL1       -0.2865
     29 C          21.0690   72.3178   -4.3306 C.3     1  UNL1        0.2611
     30 C          19.8535   71.6203   -4.9460 C.3     1  UNL1        0.1582
     31 C          20.2932   70.8596   -6.2008 C.3     1  UNL1        0.1625
     32 C          20.9540   71.8400   -7.1737 C.3     1  UNL1        0.1686
     33 C          22.1274   72.5292   -6.4723 C.3     1  UNL1        0.1760
     34 O          19.1517   70.2655   -6.8231 O.3     1  UNL1       -0.3801
     35 O          20.0000   72.8208   -7.5851 O.3     1  UNL1       -0.3794
     36 O          21.6554   73.1917   -5.2974 O.3     1  UNL1       -0.3263
     37 H          19.3570   69.7661   -7.6254 H       1  UNL1        0.2105
     38 H          20.3511   73.4768   -8.2034 H       1  UNL1        0.2105
     39 C          17.9498   70.5770   -3.8391 C.2     1  UNL1        0.2231
     40 C          17.3661   69.6098   -2.8429 C.3     1  UNL1        0.0946
     41 N          19.2865   70.6794   -3.9765 N.am    1  UNL1       -0.2994
     42 O          17.2165   71.2646   -4.5186 O.2     1  UNL1       -0.2751
     43 H          19.8732   70.1306   -3.4328 H       1  UNL1        0.1496
     44 C          22.7562   73.5539   -7.4183 C.3     1  UNL1        0.1693
     45 O          22.7837   73.0242   -8.7453 O.3     1  UNL1       -0.3794
     46 H          23.1703   73.6216   -9.4000 H       1  UNL1        0.2105
@<TRIPOS>BOND
     1    29    30    1
     2    30    41    1
     3    30    31    1
     4    31    34    1
     5    31    32    1
     6    32    35    1
     7    32    33    1
     8    33    36    1
     9    33    44    1
    10    39    40    1
    11    39    42    2
    12    39    41   am
    13    41    43    1
    14    29    28    1
    15    34    37    1
    16    35    38    1
    17    29    36    1
    18    44    45    1
    19    45    46    1
    20    15     6    1
    21    15    16   ar
    22    16    21    2
    23    16    17   ar
    24    17    23    1
    25    17    18   ar
    26    18    19   ar
    27    19    20   ar
    28    15    20   ar
    29    18    22    2
    30     6     7    1
    31     6    11    1
    32     7     9    1
    33     7     8    1
    34     8    13    1
    35     9    10    1
    36     9    12    1
    37    10     5    1
    38    10    11    1
    39    12    14    1
    40     5     4    1
    41     4     1    1
    42     1     2    1
    43     1    24    1
    44     1     3    2
    45    24    25    1
    46    28    25    1
    47    25    26    1
    48    25    27    2
@<TRIPOS>MOLECULE
UD2
 46 48 0 0 0
SMALL
GASTEIGER

@<TRIPOS>ATOM
      1 P          23.0025   71.9534   -3.2303 P.3     1  UNL1        0.2189
      2 O          24.0892   72.5213   -4.2733 O.3     1  UNL1       -0.4371
      3 O          23.4962   70.6888   -2.6421 O.2     1  UNL1       -0.5170
      4 O          22.7668   73.0339   -2.0596 O.3     1  UNL1       -0.3112
      5 C          22.4051   72.6689   -0.7264 C.3     1  UNL1        0.1811
      6 C          24.2262   72.6638    2.3753 C.3     1  UNL1        0.2383
      7 C          23.8687   71.1756    2.1308 C.3     1  UNL1        0.1895
      8 O          24.8667   70.3141    2.6818 O.3     1  UNL1       -0.3779
      9 C          23.8600   71.0930    0.5847 C.3     1  UNL1        0.1713
     10 C          23.6680   72.5526    0.1306 C.3     1  UNL1        0.1764
     11 O          23.5309   73.3544    1.3146 O.3     1  UNL1       -0.3308
     12 O          25.1039   70.5792    0.1056 O.3     1  UNL1       -0.3794
     13 H          24.6875   69.3726    2.5549 H       1  UNL1        0.2106
     14 H          25.3039   69.6837    0.4100 H       1  UNL1        0.2105
     15 N          23.7380   73.1032    3.6843 N.ar    1  UNL1       -0.2551
     16 C          22.5930   72.5948    4.1736 C.ar    1  UNL1        0.3323
     17 N          22.1207   72.9806    5.3737 N.ar    1  UNL1       -0.2743
     18 C          22.7951   73.8880    6.1087 C.ar    1  UNL1        0.2626
     19 C          24.0023   74.4306    5.6064 C.ar    1  UNL1        0.0795
     20 C          24.4547   74.0226    4.4021 C.ar    1  UNL1        0.0869
     21 O          21.9744   71.7757    3.5218 O.2     1  UNL1       -0.2464
     22 O          22.3690   74.2378    7.1953 O.2     1  UNL1       -0.2670
     23 H          21.2929   72.6050    5.7110 H       1  UNL1        0.1734
     24 O          21.6126   71.6824   -3.9972 O.3     1  UNL1       -0.2703
     25 P          20.0870   71.5000   -3.5153 P.3     1  UNL1        0.2208
     26 O          20.0353   70.4719   -2.2767 O.3     1  UNL1       -0.4371
     27 O          19.5433   72.8090   -3.0920 O.2     1  UNL1       -0.5170
     28 O          19.2057   70.9202   -4.7317 O.3     1  UNL1       -0.2865
     29 C          18.3122   71.7282   -5.4998 C.3     1  UNL1        0.2611
     30 C          16.9391   71.0547   -5.5617 C.3     1  UNL1        0.1582
     31 C          17.0736   69.7048   -6.2731 C.3     1  UNL1        0.1625
     32 C          17.6728   69.9304   -7.6640 C.3     1  UNL1        0.1686
     33 C          19.0180   70.6473   -7.5210 C.3     1  UNL1        0.1760
     34 O          15.7838   69.1020   -6.4007 O.3     1  UNL1       -0.3801
     35 O          16.7836   70.7330   -8.4426 O.3     1  UNL1       -0.3794
     36 O          18.8271   71.8802   -6.8242 O.3     1  UNL1       -0.3263
     37 H          15.7942   68.2418   -6.8424 H       1  UNL1        0.2105
     38 H          17.1006   70.9170   -9.3380 H       1  UNL1        0.2105
     39 C          16.6479   69.6673   -3.5799 C.2     1  UNL1        0.2231
     40 C          16.1311   69.4496   -2.1820 C.3     1  UNL1        0.0946
     41 N          16.4358   70.8437   -4.2020 N.am    1  UNL1       -0.2994
     42 O          17.2555   68.7831   -4.1467 O.2     1  UNL1       -0.2751
     43 H          15.9492   71.5505   -3.7496 H       1  UNL1        0.1496
     44 C          19.5952   70.9297   -8.9093 C.3     1  UNL1        0.1693
     45 O          20.7440   71.7708   -8.7863 O.3     1  UNL1       -0.3794
     46 H          21.1627   71.9915   -9.6295 H       1  UNL1        0.2105
@<TRIPOS>BOND
     1    29    30    1
     2    30    41    1
     3    30    31    1
     4    31    34    1
     5    31    32    1
     6    32    35    1
     7    32    33    1
     8    33    36    1
     9    33    44    1
    10    39    40    1
    11    39    42    2
    12    39    41   am
    13    41    43    1
    14    29    28    1
    15    34    37    1
    16    35    38    1
    17    29    36    1
    18    44    45    1
    19    45    46    1
    20    15     6    1
    21    15    16   ar
    22    16    21    2
    23    16    17   ar
    24    17    23    1
    25    17    18   ar
    26    18    19   ar
    27    19    20   ar
    28    15    20   ar
    29    18    22    2
    30     6     7    1
    31     6    11    1
    32     7     9    1
    33     7     8    1
    34     8    13    1
    35     9    10    1
    36     9    12    1
    37    10     5    1
    38    10    11    1
    39    12    14    1
    40     5     4    1
    41     4     1    1
    42     1     2    1
    43     1    24    1
    44     1     3    2
    45    24    25    1
    46    28    25    1
    47    25    26    1
    48    25    27    2
@<TRIPOS>MOLECULE
UD2
 46 48 0 0 0
SMALL
GASTEIGER

@<TRIPOS>ATOM
      1 P          20.2301   72.0064   -1.2367 P.3     1  UNL1        0.2189
      2 O          18.9952   72.7679   -0.5392 O.3     1  UNL1       -0.4371
      3 O          20.7972   71.0178   -0.2934 O.2     1  UNL1       -0.5170
      4 O          19.7145   71.2498   -2.5616 O.3     1  UNL1       -0.3112
      5 C          18.8426   70.1186   -2.5210 C.3     1  UNL1        0.1811
      6 C          17.1425   70.4048   -5.6776 C.3     1  UNL1        0.2383
      7 C          16.9070   68.9369   -5.2398 C.3     1  UNL1        0.1895
      8 O          15.6533   68.4542   -5.7270 O.3     1  UNL1       -0.3779
      9 C          16.8907   69.0564   -3.6962 C.3     1  UNL1        0.1713
     10 C          17.6267   70.3800   -3.4133 C.3     1  UNL1        0.1764
     11 O          18.0536   70.9109   -4.6779 O.3     1  UNL1       -0.3308
     12 O          15.5471   69.1179   -3.2147 O.3     1  UNL1       -0.3794
     13 H          15.4607   67.5397   -5.4796 H       1  UNL1        0.2106
     14 H          15.0195   68.3337   -3.4175 H       1  UNL1        0.2105
     15 N          17.7552   70.4546   -7.0070 N.ar    1  UNL1       -0.2551
     16 C          16.9739   70.4458   -8.1016 C.ar    1  UNL1        0.3323
     17 N          17.5098   70.4905   -9.3357 N.ar    1  UNL1       -0.2743
     18 C          18.8479   70.5471   -9.4929 C.ar    1  UNL1        0.2626
     19 C          19.6823   70.5581   -8.3494 C.ar    1  UNL1        0.0795
     20 C          19.1177   70.5167   -7.1242 C.ar    1  UNL1        0.0869
     21 O          15.7657   70.3952   -7.9749 O.2     1  UNL1       -0.2464
     22 O          19.3342   70.5881  -10.6094 O.2     1  UNL1       -0.2670
     23 H          16.9320   70.4821  -10.1143 H       1  UNL1        0.1734
     24 O          21.3638   73.0774   -1.6380 O.3     1  UNL1       -0.2703
     25 P          22.9704   73.0976   -1.5314 P.3     1  UNL1        0.2208
     26 O          23.4032   73.2825    0.0088 O.3     1  UNL1       -0.4371
     27 O          23.5153   71.8225   -2.0466 O.2     1  UNL1       -0.5170
     28 O          23.5506   74.3209   -2.4029 O.3     1  UNL1       -0.2865
     29 C          24.4545   74.1393   -3.4943 C.3     1  UNL1        0.2611
     30 C          24.8604   75.5046   -4.0546 C.3     1  UNL1        0.1582
     31 C          23.6159   76.2156   -4.5948 C.3     1  UNL1        0.1625
     32 C          22.9526   75.3283   -5.6518 C.3     1  UNL1        0.1686
     33 C          22.6201   73.9695   -5.0297 C.3     1  UNL1        0.1760
     34 O          23.9963   77.4601   -5.1864 O.3     1  UNL1       -0.3801
     35 O          23.8467   75.1451   -6.7510 O.3     1  UNL1       -0.3794
     36 O          23.8155   73.3757   -4.5194 O.3     1  UNL1       -0.3263
     37 H          23.2558   77.9652   -5.5493 H       1  UNL1        0.2105
     38 H          23.4912   74.5908   -7.4598 H       1  UNL1        0.2105
     39 C          26.5382   77.0787   -3.2516 C.2     1  UNL1        0.2231
     40 C          27.1569   77.9086   -2.1574 C.3     1  UNL1        0.0946
     41 N          25.4618   76.3113   -2.9897 N.am    1  UNL1       -0.2994
     42 O          27.0089   77.1006   -4.3697 O.2     1  UNL1       -0.2751
     43 H          25.0857   76.2927   -2.0957 H       1  UNL1        0.1496
     44 C          22.0112   73.0563   -6.0954 C.3     1  UNL1        0.1693
     45 O          23.0464   72.2904   -6.7153 O.3     1  UNL1       -0.3794
     46 H          22.7323   71.6877   -7.4032 H       1  UNL1        0.2105
@<TRIPOS>BOND
     1    29    30    1
     2    30    41    1
     3    30    31    1
     4    31    34    1
     5    31    32    1
     6    32    35    1
     7    32    33    1
     8    33    36    1
     9    33    44    1
    10    39    40    1
    11    39    42    2
    12    39    41   am
    13    41    43    1
    14    29    28    1
    15    34    37    1
    16    35    38    1
    17    29    36    1
    18    44    45    1
    19    45    46    1
    20    15     6    1
    21    15    16   ar
    22    16    21    2
    23    16    17   ar
    24    17    23    1
    25    17    18   ar
    26    18    19   ar
    27    19    20   ar
    28    15    20   ar
    29    18    22    2
    30     6     7    1
    31     6    11    1
    32     7     9    1
    33     7     8    1
    34     8    13    1
    35     9    10    1
    36     9    12    1
    37    10     5    1
    38    10    11    1
    39    12    14    1
    40     5     4    1
    41     4     1    1
    42     1     2    1
    43     1    24    1
    44     1     3    2
    45    24    25    1
    46    28    25    1
    47    25    26    1
    48    25    27    2
@<TRIPOS>MOLECULE
UD2
 46 48 0 0 0
SMALL
GASTEIGER

@<TRIPOS>ATOM
      1 P          15.7303   70.5023   -2.2994 P.3     1  UNL1        0.2189
      2 O          15.5531   69.2109   -3.2440 O.3     1  UNL1       -0.4371
      3 O          14.7868   71.5592   -2.7255 O.2     1  UNL1       -0.5170
      4 O          15.4258   70.0951   -0.7713 O.3     1  UNL1       -0.3112
      5 C          14.6299   68.9642   -0.4122 C.3     1  UNL1        0.1811
      6 C          11.0623   68.5323   -0.5620 C.3     1  UNL1        0.2383
      7 C          11.4523   68.0620    0.8624 C.3     1  UNL1        0.1895
      8 O          10.3936   68.3104    1.7893 O.3     1  UNL1       -0.3779
      9 C          12.6799   68.9526    1.1742 C.3     1  UNL1        0.1713
     10 C          13.1781   69.4058   -0.2114 C.3     1  UNL1        0.1764
     11 O          12.3368   68.7809   -1.1939 O.3     1  UNL1       -0.3308
     12 O          12.2912   70.0805    1.9600 O.3     1  UNL1       -0.3794
     13 H          10.5897   68.0328    2.6943 H       1  UNL1        0.2106
     14 H          11.9149   69.8507    2.8203 H       1  UNL1        0.2105
     15 N          10.3312   67.4796   -1.2707 N.ar    1  UNL1       -0.2551
     16 C          10.6504   66.1900   -1.0615 C.ar    1  UNL1        0.3323
     17 N           9.9954   65.2018   -1.6993 N.ar    1  UNL1       -0.2743
     18 C           9.0010   65.4934   -2.5623 C.ar    1  UNL1        0.2626
     19 C           8.6539   66.8466   -2.7913 C.ar    1  UNL1        0.0795
     20 C           9.3245   67.8166   -2.1350 C.ar    1  UNL1        0.0869
     21 O          11.5447   65.9123   -0.2859 O.2     1  UNL1       -0.2464
     22 O           8.4072   64.6000   -3.1399 O.2     1  UNL1       -0.2670
     23 H          10.2391   64.2774   -1.5377 H       1  UNL1        0.1734
     24 O          17.2399   71.0507   -2.4172 O.3     1  UNL1       -0.2703
     25 P          18.6716   70.3460   -2.6324 P.3     1  UNL1        0.2208
     26 O          19.5427   70.4790   -1.2843 O.3     1  UNL1       -0.4371
     27 O          18.4744   68.9152   -2.9523 O.2     1  UNL1       -0.5170
     28 O          19.4471   71.0658   -3.8461 O.3     1  UNL1       -0.2865
     29 C          20.5877   70.4943   -4.4891 C.3     1  UNL1        0.2611
     30 C          21.7887   71.4288   -4.3252 C.3     1  UNL1        0.1582
     31 C          21.4852   72.7621   -5.0155 C.3     1  UNL1        0.1625
     32 C          21.1512   72.4987   -6.4864 C.3     1  UNL1        0.1686
     33 C          19.9744   71.5227   -6.5670 C.3     1  UNL1        0.1760
     34 O          22.6294   73.6147   -4.9309 O.3     1  UNL1       -0.3801
     35 O          22.2880   71.9320   -7.1403 O.3     1  UNL1       -0.3794
     36 O          20.3106   70.3158   -5.8797 O.3     1  UNL1       -0.3263
     37 H          22.5073   74.4786   -5.3479 H       1  UNL1        0.2105
     38 H          22.1474   71.7381   -8.0776 H       1  UNL1        0.2105
     39 C          23.2305   71.3386   -2.3628 C.2     1  UNL1        0.2231
     40 C          23.4870   71.5769   -0.8979 C.3     1  UNL1        0.0946
     41 N          22.0374   71.6607   -2.9001 N.am    1  UNL1       -0.2994
     42 O          24.0984   70.8562   -3.0602 O.2     1  UNL1       -0.2751
     43 H          21.3429   72.0455   -2.3427 H       1  UNL1        0.1496
     44 C          19.6728   71.2078   -8.0334 C.3     1  UNL1        0.1693
     45 O          18.4994   71.9143   -8.4414 O.3     1  UNL1       -0.3794
     46 H          18.2481   71.7616   -9.3626 H       1  UNL1        0.2105
@<TRIPOS>BOND
     1    29    30    1
     2    30    41    1
     3    30    31    1
     4    31    34    1
     5    31    32    1
     6    32    35    1
     7    32    33    1
     8    33    36    1
     9    33    44    1
    10    39    40    1
    11    39    42    2
    12    39    41   am
    13    41    43    1
    14    29    28    1
    15    34    37    1
    16    35    38    1
    17    29    36    1
    18    44    45    1
    19    45    46    1
    20    15     6    1
    21    15    16   ar
    22    16    21    2
    23    16    17   ar
    24    17    23    1
    25    17    18   ar
    26    18    19   ar
    27    19    20   ar
    28    15    20   ar
    29    18    22    2
    30     6     7    1
    31     6    11    1
    32     7     9    1
    33     7     8    1
    34     8    13    1
    35     9    10    1
    36     9    12    1
    37    10     5    1
    38    10    11    1
    39    12    14    1
    40     5     4    1
    41     4     1    1
    42     1     2    1
    43     1    24    1
    44     1     3    2
    45    24    25    1
    46    28    25    1
    47    25    26    1
    48    25    27    2
@<TRIPOS>MOLECULE
UD2
 46 48 0 0 0
SMALL
GASTEIGER

@<TRIPOS>ATOM
      1 P          23.0975   72.9733   -4.4878 P.3     1  UNL1        0.2189
      2 O          23.5629   74.4694   -4.8572 O.3     1  UNL1       -0.4371
      3 O          24.2631   72.1973   -4.0103 O.2     1  UNL1       -0.5170
      4 O          21.9795   73.0297   -3.3300 O.3     1  UNL1       -0.3112
      5 C          21.1653   74.1793   -3.0912 C.3     1  UNL1        0.1811
      6 C          21.6568   73.4754    0.4016 C.3     1  UNL1        0.2383
      7 C          22.3374   74.8504    0.1816 C.3     1  UNL1        0.1895
      8 O          22.2658   75.6499    1.3637 O.3     1  UNL1       -0.3779
      9 C          21.4773   75.4615   -0.9515 C.3     1  UNL1        0.1713
     10 C          20.7976   74.2440   -1.6067 C.3     1  UNL1        0.1764
     11 O          21.2794   73.0708   -0.9323 O.3     1  UNL1       -0.3308
     12 O          20.4984   76.3504   -0.4108 O.3     1  UNL1       -0.3794
     13 H          22.6786   76.5197    1.2762 H       1  UNL1        0.2106
     14 H          20.8712   77.1050    0.0647 H       1  UNL1        0.2105
     15 N          22.6016   72.5194    0.9833 N.ar    1  UNL1       -0.2551
     16 C          22.4482   72.1233    2.2594 C.ar    1  UNL1        0.3323
     17 N          23.3016   71.2459    2.8198 N.ar    1  UNL1       -0.2743
     18 C          24.3293   70.7465    2.1034 C.ar    1  UNL1        0.2626
     19 C          24.5020   71.1540    0.7587 C.ar    1  UNL1        0.0795
     20 C          23.6289   72.0316    0.2212 C.ar    1  UNL1        0.0869
     21 O          21.5260   72.5653    2.9171 O.2     1  UNL1       -0.2464
     22 O          25.1021   69.9520    2.6094 O.2     1  UNL1       -0.2670
     23 H          23.1773   70.9719    3.7415 H       1  UNL1        0.1734
     24 O          22.4797   72.2648   -5.7953 O.3     1  UNL1       -0.2703
     25 P          21.1754   72.5325   -6.7008 P.3     1  UNL1        0.2208
     26 O          20.9630   74.1190   -6.8794 O.3     1  UNL1       -0.4371
     27 O          21.3598   71.9076   -8.0289 O.2     1  UNL1       -0.5170
     28 O          19.8832   71.8952   -5.9821 O.3     1  UNL1       -0.2865
     29 C          18.5475   72.3135   -6.2687 C.3     1  UNL1        0.2611
     30 C          17.5851   71.6751   -5.2642 C.3     1  UNL1        0.1582
     31 C          17.6383   70.1518   -5.4166 C.3     1  UNL1        0.1625
     32 C          17.2973   69.7820   -6.8628 C.3     1  UNL1        0.1686
     33 C          18.2710   70.4937   -7.8059 C.3     1  UNL1        0.1760
     34 O          16.6888   69.5504   -4.5334 O.3     1  UNL1       -0.3801
     35 O          15.9606   70.1912   -7.1580 O.3     1  UNL1       -0.3794
     36 O          18.1941   71.9044   -7.5915 O.3     1  UNL1       -0.3263
     37 H          16.6688   68.5845   -4.5767 H       1  UNL1        0.2105
     38 H          15.6767   69.9885   -8.0604 H       1  UNL1        0.2105
     39 C          17.0453   72.3939   -2.9994 C.2     1  UNL1        0.2231
     40 C          17.4524   72.7742   -1.6000 C.3     1  UNL1        0.0946
     41 N          17.9820   72.0451   -3.9032 N.am    1  UNL1       -0.2994
     42 O          15.8734   72.4016   -3.3136 O.2     1  UNL1       -0.2751
     43 H          18.9191   72.0398   -3.6527 H       1  UNL1        0.1496
     44 C          17.8998   70.1768   -9.2558 C.3     1  UNL1        0.1693
     45 O          18.3780   71.2185  -10.1093 O.3     1  UNL1       -0.3794
     46 H          18.1778   71.0836  -11.0456 H       1  UNL1        0.2105
@<TRIPOS>BOND
     1    29    30    1
     2    30    41    1
     3    30    31    1
     4    31    34    1
     5    31    32    1
     6    32    35    1
     7    32    33    1
     8    33    36    1
     9    33    44    1
    10    39    40    1
    11    39    42    2
    12    39    41   am
    13    41    43    1
    14    29    28    1
    15    34    37    1
    16    35    38    1
    17    29    36    1
    18    44    45    1
    19    45    46    1
    20    15     6    1
    21    15    16   ar
    22    16    21    2
    23    16    17   ar
    24    17    23    1
    25    17    18   ar
    26    18    19   ar
    27    19    20   ar
    28    15    20   ar
    29    18    22    2
    30     6     7    1
    31     6    11    1
    32     7     9    1
    33     7     8    1
    34     8    13    1
    35     9    10    1
    36     9    12    1
    37    10     5    1
    38    10    11    1
    39    12    14    1
    40     5     4    1
    41     4     1    1
    42     1     2    1
    43     1    24    1
    44     1     3    2
    45    24    25    1
    46    28    25    1
    47    25    26    1
    48    25    27    2
@<TRIPOS>MOLECULE
UD2
 46 48 0 0 0
SMALL
GASTEIGER

@<TRIPOS>ATOM
      1 P          16.9068   69.5147   -3.0642 P.3     1  UNL1        0.2189
      2 O          18.0980   70.1591   -2.1940 O.3     1  UNL1       -0.4371
      3 O          17.4275   68.3692   -3.8424 O.2     1  UNL1       -0.5170
      4 O          15.7371   69.0076   -2.0800 O.3     1  UNL1       -0.3112
      5 C          15.2109   69.8091   -1.0208 C.3     1  UNL1        0.1811
      6 C          12.2551   68.4934    0.5503 C.3     1  UNL1        0.2383
      7 C          12.3967   69.9260    1.1245 C.3     1  UNL1        0.1895
      8 O          11.1163   70.4824    1.4289 O.3     1  UNL1       -0.3779
      9 C          13.0628   70.6830   -0.0506 C.3     1  UNL1        0.1713
     10 C          13.7039   69.5695   -0.9006 C.3     1  UNL1        0.1764
     11 O          13.4591   68.3236   -0.2287 O.3     1  UNL1       -0.3308
     12 O          12.0803   71.3895   -0.8097 O.3     1  UNL1       -0.3794
     13 H          11.1525   71.3779    1.7916 H       1  UNL1        0.2106
     14 H          11.6034   72.0634   -0.3069 H       1  UNL1        0.2105
     15 N          12.1967   67.5076    1.6320 N.ar    1  UNL1       -0.2551
     16 C          11.0028   67.0933    2.0923 C.ar    1  UNL1        0.3323
     17 N          10.9193   66.1885    3.0855 N.ar    1  UNL1       -0.2743
     18 C          12.0403   65.6795    3.6359 C.ar    1  UNL1        0.2626
     19 C          13.3036   66.1059    3.1604 C.ar    1  UNL1        0.0795
     20 C          13.3576   67.0110    2.1607 C.ar    1  UNL1        0.0869
     21 O           9.9838   67.5436    1.6052 O.2     1  UNL1       -0.2464
     22 O          11.9661   64.8602    4.5347 O.2     1  UNL1       -0.2670
     23 H          10.0505   65.9016    3.4064 H       1  UNL1        0.1734
     24 O          16.3165   70.6241   -4.0711 O.3     1  UNL1       -0.2703
     25 P          16.8504   72.0466   -4.6046 P.3     1  UNL1        0.2208
     26 O          15.7098   72.7453   -5.5016 O.3     1  UNL1       -0.4371
     27 O          17.1727   72.9165   -3.4523 O.2     1  UNL1       -0.5170
     28 O          18.1729   71.8235   -5.4956 O.3     1  UNL1       -0.2865
     29 C          18.7705   70.5411   -5.6942 C.3     1  UNL1        0.2611
     30 C          20.2854   70.6480   -5.5033 C.3     1  UNL1        0.1582
     31 C          20.8588   71.5970   -6.5602 C.3     1  UNL1        0.1625
     32 C          20.4841   71.0802   -7.9519 C.3     1  UNL1        0.1686
     33 C          18.9612   70.9567   -8.0484 C.3     1  UNL1        0.1760
     34 O          22.2820   71.6457   -6.4360 O.3     1  UNL1       -0.3801
     35 O          21.0820   69.7998   -8.1629 O.3     1  UNL1       -0.3794
     36 O          18.4894   70.0850   -7.0191 O.3     1  UNL1       -0.3263
     37 H          22.7124   72.2299   -7.0753 H       1  UNL1        0.2105
     38 H          20.8857   69.4109   -9.0267 H       1  UNL1        0.2105
     39 C          20.7260   72.4984   -3.9803 C.2     1  UNL1        0.2231
     40 C          21.0228   73.0382   -2.6058 C.3     1  UNL1        0.0946
     41 N          20.5743   71.1722   -4.1661 N.am    1  UNL1       -0.2994
     42 O          20.6235   73.2575   -4.9212 O.2     1  UNL1       -0.2751
     43 H          20.6572   70.5649   -3.4143 H       1  UNL1        0.1496
     44 C          18.5818   70.3843   -9.4155 C.3     1  UNL1        0.1693
     45 O          19.3807   70.9991  -10.4285 O.3     1  UNL1       -0.3794
     46 H          19.1937   70.6835  -11.3232 H       1  UNL1        0.2105
@<TRIPOS>BOND
     1    29    30    1
     2    30    41    1
     3    30    31    1
     4    31    34    1
     5    31    32    1
     6    32    35    1
     7    32    33    1
     8    33    36    1
     9    33    44    1
    10    39    40    1
    11    39    42    2
    12    39    41   am
    13    41    43    1
    14    29    28    1
    15    34    37    1
    16    35    38    1
    17    29    36    1
    18    44    45    1
    19    45    46    1
    20    15     6    1
    21    15    16   ar
    22    16    21    2
    23    16    17   ar
    24    17    23    1
    25    17    18   ar
    26    18    19   ar
    27    19    20   ar
    28    15    20   ar
    29    18    22    2
    30     6     7    1
    31     6    11    1
    32     7     9    1
    33     7     8    1
    34     8    13    1
    35     9    10    1
    36     9    12    1
    37    10     5    1
    38    10    11    1
    39    12    14    1
    40     5     4    1
    41     4     1    1
    42     1     2    1
    43     1    24    1
    44     1     3    2
    45    24    25    1
    46    28    25    1
    47    25    26    1
    48    25    27    2
@<TRIPOS>MOLECULE
UD2
 46 48 0 0 0
SMALL
GASTEIGER

@<TRIPOS>ATOM
      1 P          21.1789   71.2929   -0.1341 P.3     1  UNL1        0.2189
      2 O          21.5293   70.2483    1.0396 O.3     1  UNL1       -0.4371
      3 O          22.4014   71.5891   -0.9128 O.2     1  UNL1       -0.5170
      4 O          20.0650   70.6539   -1.1060 O.3     1  UNL1       -0.3112
      5 C          20.1864   70.6489   -2.5296 C.3     1  UNL1        0.1811
      6 C          17.8460   70.6273   -5.2606 C.3     1  UNL1        0.2383
      7 C          17.7496   69.2045   -4.6535 C.3     1  UNL1        0.1895
      8 O          16.4348   68.6689   -4.8153 O.3     1  UNL1       -0.3779
      9 C          18.0591   69.4669   -3.1592 C.3     1  UNL1        0.1713
     10 C          18.8017   70.8167   -3.1599 C.3     1  UNL1        0.1764
     11 O          18.9347   71.2312   -4.5288 O.3     1  UNL1       -0.3308
     12 O          16.8476   69.5623   -2.4081 O.3     1  UNL1       -0.3794
     13 H          16.3245   67.7799   -4.4519 H       1  UNL1        0.2106
     14 H          16.3108   68.7585   -2.4224 H       1  UNL1        0.2105
     15 N          18.1599   70.5581   -6.6895 N.ar    1  UNL1       -0.2551
     16 C          17.1618   70.4991   -7.5890 C.ar    1  UNL1        0.3323
     17 N          17.4212   70.4347   -8.9084 N.ar    1  UNL1       -0.2743
     18 C          18.6953   70.4303   -9.3502 C.ar    1  UNL1        0.2626
     19 C          19.7557   70.4930   -8.4145 C.ar    1  UNL1        0.0795
     20 C          19.4665   70.5611   -7.0980 C.ar    1  UNL1        0.0869
     21 O          16.0082   70.5026   -7.2050 O.2     1  UNL1       -0.2464
     22 O          18.9314   70.3724  -10.5442 O.2     1  UNL1       -0.2670
     23 H          16.6897   70.3915   -9.5434 H       1  UNL1        0.1734
     24 O          20.6100   72.6543    0.5110 O.3     1  UNL1       -0.2703
     25 P          20.6523   73.2944    1.9880 P.3     1  UNL1        0.2208
     26 O          19.6175   74.5259    2.0684 O.3     1  UNL1       -0.4371
     27 O          20.2735   72.2668    2.9824 O.2     1  UNL1       -0.5170
     28 O          22.1408   73.8224    2.3015 O.3     1  UNL1       -0.2865
     29 C          22.9398   73.3097    3.3692 C.3     1  UNL1        0.2611
     30 C          23.9728   74.3600    3.7845 C.3     1  UNL1        0.1582
     31 C          24.9038   74.6436    2.6016 C.3     1  UNL1        0.1625
     32 C          25.5564   73.3329    2.1538 C.3     1  UNL1        0.1686
     33 C          24.4620   72.3219    1.8012 C.3     1  UNL1        0.1760
     34 O          25.9169   75.5688    3.0027 O.3     1  UNL1       -0.3801
     35 O          26.3629   72.8145    3.2131 O.3     1  UNL1       -0.3794
     36 O          23.6132   72.1267    2.9341 O.3     1  UNL1       -0.3263
     37 H          26.5428   75.7947    2.3010 H       1  UNL1        0.2105
     38 H          26.8073   71.9823    2.9989 H       1  UNL1        0.2105
     39 C          23.7025   76.2850    5.2538 C.2     1  UNL1        0.2231
     40 C          22.9974   77.5541    5.6549 C.3     1  UNL1        0.0946
     41 N          23.2863   75.5943    4.1741 N.am    1  UNL1       -0.2994
     42 O          24.6458   75.8838    5.9030 O.2     1  UNL1       -0.2751
     43 H          22.5316   75.9142    3.6554 H       1  UNL1        0.1496
     44 C          25.1052   70.9902    1.4099 C.3     1  UNL1        0.1693
     45 O          25.0026   70.0722    2.5003 O.3     1  UNL1       -0.3794
     46 H          25.3907   69.2045    2.3226 H       1  UNL1        0.2105
@<TRIPOS>BOND
     1    29    30    1
     2    30    41    1
     3    30    31    1
     4    31    34    1
     5    31    32    1
     6    32    35    1
     7    32    33    1
     8    33    36    1
     9    33    44    1
    10    39    40    1
    11    39    42    2
    12    39    41   am
    13    41    43    1
    14    29    28    1
    15    34    37    1
    16    35    38    1
    17    29    36    1
    18    44    45    1
    19    45    46    1
    20    15     6    1
    21    15    16   ar
    22    16    21    2
    23    16    17   ar
    24    17    23    1
    25    17    18   ar
    26    18    19   ar
    27    19    20   ar
    28    15    20   ar
    29    18    22    2
    30     6     7    1
    31     6    11    1
    32     7     9    1
    33     7     8    1
    34     8    13    1
    35     9    10    1
    36     9    12    1
    37    10     5    1
    38    10    11    1
    39    12    14    1
    40     5     4    1
    41     4     1    1
    42     1     2    1
    43     1    24    1
    44     1     3    2
    45    24    25    1
    46    28    25    1
    47    25    26    1
    48    25    27    2
@<TRIPOS>MOLECULE
UD2
 46 48 0 0 0
SMALL
GASTEIGER

@<TRIPOS>ATOM
      1 P          21.8562   72.7041   -6.1831 P.3     1  UNL1        0.2189
      2 O          23.0501   73.2176   -7.1329 O.3     1  UNL1       -0.4371
      3 O          20.8285   73.7619   -6.0660 O.2     1  UNL1       -0.5170
      4 O          21.1947   71.3813   -6.8204 O.3     1  UNL1       -0.3112
      5 C          20.6296   71.3498   -8.1323 C.3     1  UNL1        0.1811
      6 C          17.4529   70.1665   -6.9302 C.3     1  UNL1        0.2383
      7 C          17.0943   71.1752   -8.0509 C.3     1  UNL1        0.1895
      8 O          15.8753   70.8061   -8.6986 O.3     1  UNL1       -0.3779
      9 C          18.2974   71.0317   -9.0149 C.3     1  UNL1        0.1713
     10 C          19.4105   70.4241   -8.1401 C.3     1  UNL1        0.1764
     11 O          18.8862   70.2953   -6.8089 O.3     1  UNL1       -0.3308
     12 O          17.9712   70.1521  -10.0923 O.3     1  UNL1       -0.3794
     13 H          15.6084   71.4072   -9.4071 H       1  UNL1        0.2106
     14 H          17.2366   70.4572  -10.6415 H       1  UNL1        0.2105
     15 N          16.7934   70.5338   -5.6752 N.ar    1  UNL1       -0.2551
     16 C          16.4636   69.5760   -4.7905 C.ar    1  UNL1        0.3323
     17 N          15.8567   69.8848   -3.6292 N.ar    1  UNL1       -0.2743
     18 C          15.5702   71.1690   -3.3336 C.ar    1  UNL1        0.2626
     19 C          15.9127   72.1875   -4.2553 C.ar    1  UNL1        0.0795
     20 C          16.5244   71.8496   -5.4100 C.ar    1  UNL1        0.0869
     21 O          16.7161   68.4139   -5.0437 O.2     1  UNL1       -0.2464
     22 O          15.0213   71.4499   -2.2828 O.2     1  UNL1       -0.2670
     23 H          15.6247   69.1818   -3.0030 H       1  UNL1        0.1734
     24 O          22.4418   72.3603   -4.7229 O.3     1  UNL1       -0.2703
     25 P          23.3196   73.1788   -3.6493 P.3     1  UNL1        0.2208
     26 O          24.8727   73.1220   -4.0717 O.3     1  UNL1       -0.4371
     27 O          22.8695   74.5876   -3.6151 O.2     1  UNL1       -0.5170
     28 O          23.1350   72.5204   -2.1916 O.3     1  UNL1       -0.2865
     29 C          22.6184   73.2414   -1.0715 C.3     1  UNL1        0.2611
     30 C          22.6018   72.3311    0.1589 C.3     1  UNL1        0.1582
     31 C          21.6653   71.1479   -0.1046 C.3     1  UNL1        0.1625
     32 C          20.2724   71.6806   -0.4514 C.3     1  UNL1        0.1686
     33 C          20.3788   72.6161   -1.6586 C.3     1  UNL1        0.1760
     34 O          21.5867   70.3316    1.0662 O.3     1  UNL1       -0.3801
     35 O          19.7441   72.3988    0.6650 O.3     1  UNL1       -0.3794
     36 O          21.2879   73.6770   -1.3584 O.3     1  UNL1       -0.3263
     37 H          21.0099   69.5614    0.9701 H       1  UNL1        0.2105
     38 H          18.8616   72.7661    0.5154 H       1  UNL1        0.2105
     39 C          24.4034   71.7310    1.6860 C.2     1  UNL1        0.2231
     40 C          25.7951   71.2214    1.9544 C.3     1  UNL1        0.0946
     41 N          23.9557   71.8355    0.4192 N.am    1  UNL1       -0.2994
     42 O          23.6844   72.0480    2.6106 O.2     1  UNL1       -0.2751
     43 H          24.5306   71.5832   -0.3204 H       1  UNL1        0.1496
     44 C          19.0002   73.1994   -1.9746 C.3     1  UNL1        0.1693
     45 O          17.9881   72.3685   -1.4023 O.3     1  UNL1       -0.3794
     46 H          17.0864   72.6785   -1.5633 H       1  UNL1        0.2105
@<TRIPOS>BOND
     1    29    30    1
     2    30    41    1
     3    30    31    1
     4    31    34    1
     5    31    32    1
     6    32    35    1
     7    32    33    1
     8    33    36    1
     9    33    44    1
    10    39    40    1
    11    39    42    2
    12    39    41   am
    13    41    43    1
    14    29    28    1
    15    34    37    1
    16    35    38    1
    17    29    36    1
    18    44    45    1
    19    45    46    1
    20    15     6    1
    21    15    16   ar
    22    16    21    2
    23    16    17   ar
    24    17    23    1
    25    17    18   ar
    26    18    19   ar
    27    19    20   ar
    28    15    20   ar
    29    18    22    2
    30     6     7    1
    31     6    11    1
    32     7     9    1
    33     7     8    1
    34     8    13    1
    35     9    10    1
    36     9    12    1
    37    10     5    1
    38    10    11    1
    39    12    14    1
    40     5     4    1
    41     4     1    1
    42     1     2    1
    43     1    24    1
    44     1     3    2
    45    24    25    1
    46    28    25    1
    47    25    26    1
    48    25    27    2
@<TRIPOS>MOLECULE
UD2
 46 48 0 0 0
SMALL
GASTEIGER

@<TRIPOS>ATOM
      1 P          23.0724   71.5995   -2.6428 P.3     1  UNL1        0.2189
      2 O          23.3814   73.1760   -2.5404 O.3     1  UNL1       -0.4371
      3 O          24.2697   70.8933   -3.1494 O.2     1  UNL1       -0.5170
      4 O          22.6913   71.0317   -1.1847 O.3     1  UNL1       -0.3112
      5 C          23.5663   71.1298   -0.0594 C.3     1  UNL1        0.1811
      6 C          22.8041   72.5065    3.1748 C.3     1  UNL1        0.2383
      7 C          22.0004   73.3815    2.1796 C.3     1  UNL1        0.1895
      8 O          20.7987   73.8661    2.7818 O.3     1  UNL1       -0.3779
      9 C          21.6835   72.3764    1.0453 C.3     1  UNL1        0.1713
     10 C          22.7376   71.2665    1.2202 C.3     1  UNL1        0.1764
     11 O          23.5864   71.6511    2.3135 O.3     1  UNL1       -0.3308
     12 O          20.3666   71.8455    1.2027 O.3     1  UNL1       -0.3794
     13 H          20.2615   74.4193    2.1986 H       1  UNL1        0.2106
     14 H          19.6660   72.5102    1.1606 H       1  UNL1        0.2105
     15 N          23.6765   73.3392    4.0058 N.ar    1  UNL1       -0.2551
     16 C          23.2612   73.7314    5.2233 C.ar    1  UNL1        0.3323
     17 N          24.0421   74.4972    6.0083 N.ar    1  UNL1       -0.2743
     18 C          25.2619   74.8832    5.5822 C.ar    1  UNL1        0.2626
     19 C          25.7122   74.4768    4.3031 C.ar    1  UNL1        0.0795
     20 C          24.9102   73.7057    3.5390 C.ar    1  UNL1        0.0869
     21 O          22.1638   73.3906    5.6206 O.2     1  UNL1       -0.2464
     22 O          25.9698   75.5759    6.2918 O.2     1  UNL1       -0.2670
     23 H          23.7267   74.7721    6.8830 H       1  UNL1        0.1734
     24 O          21.8400   71.3582   -3.6508 O.3     1  UNL1       -0.2703
     25 P          21.3481   72.0743   -5.0066 P.3     1  UNL1        0.2208
     26 O          21.0187   73.6220   -4.7065 O.3     1  UNL1       -0.4371
     27 O          22.4160   71.9867   -6.0266 O.2     1  UNL1       -0.5170
     28 O          20.0232   71.3391   -5.5515 O.3     1  UNL1       -0.2865
     29 C          18.9833   72.0260   -6.2502 C.3     1  UNL1        0.2611
     30 C          17.6227   71.5767   -5.7122 C.3     1  UNL1        0.1582
     31 C          17.4488   70.0778   -5.9758 C.3     1  UNL1        0.1625
     32 C          17.5952   69.8141   -7.4769 C.3     1  UNL1        0.1686
     33 C          18.9573   70.3314   -7.9470 C.3     1  UNL1        0.1760
     34 O          16.1507   69.6646   -5.5427 O.3     1  UNL1       -0.3801
     35 O          16.5559   70.4924   -8.1847 O.3     1  UNL1       -0.3794
     36 O          19.0665   71.7237   -7.6445 O.3     1  UNL1       -0.3263
     37 H          15.9720   68.7240   -5.6791 H       1  UNL1        0.2105
     38 H          16.5874   70.3697   -9.1439 H       1  UNL1        0.2105
     39 C          16.5523   72.5687   -3.7608 C.2     1  UNL1        0.2231
     40 C          16.4851   72.8305   -2.2790 C.3     1  UNL1        0.0946
     41 N          17.5582   71.8311   -4.2708 N.am    1  UNL1       -0.2994
     42 O          15.7004   73.0221   -4.4963 O.2     1  UNL1       -0.2751
     43 H          18.2401   71.4692   -3.6832 H       1  UNL1        0.1496
     44 C          19.0872   70.1256   -9.4574 C.3     1  UNL1        0.1693
     45 O          18.4858   71.2263  -10.1423 O.3     1  UNL1       -0.3794
     46 H          18.5311   71.1627  -11.1061 H       1  UNL1        0.2105
@<TRIPOS>BOND
     1    29    30    1
     2    30    41    1
     3    30    31    1
     4    31    34    1
     5    31    32    1
     6    32    35    1
     7    32    33    1
     8    33    36    1
     9    33    44    1
    10    39    40    1
    11    39    42    2
    12    39    41   am
    13    41    43    1
    14    29    28    1
    15    34    37    1
    16    35    38    1
    17    29    36    1
    18    44    45    1
    19    45    46    1
    20    15     6    1
    21    15    16   ar
    22    16    21    2
    23    16    17   ar
    24    17    23    1
    25    17    18   ar
    26    18    19   ar
    27    19    20   ar
    28    15    20   ar
    29    18    22    2
    30     6     7    1
    31     6    11    1
    32     7     9    1
    33     7     8    1
    34     8    13    1
    35     9    10    1
    36     9    12    1
    37    10     5    1
    38    10    11    1
    39    12    14    1
    40     5     4    1
    41     4     1    1
    42     1     2    1
    43     1    24    1
    44     1     3    2
    45    24    25    1
    46    28    25    1
    47    25    26    1
    48    25    27    2
