@<TRIPOS>MOLECULE
*****
 43 45 0 0 0
SMALL
GASTEIGER

@<TRIPOS>ATOM
      1 P          23.0112   71.3807   -2.3956 P.3     1  UNL1        0.2189
      2 O          22.8481   72.9888   -2.4747 O.co2   1  UNL1       -0.4371
      3 O          24.2107   70.8296   -3.1093 O.2     1  UNL1       -0.5170
      4 O          21.5778   70.8198   -2.8942 O.3     1  UNL1       -0.3112
      5 C          20.9316   71.4766   -3.9692 C.3     1  UNL1        0.1811
      6 O          18.7603   71.9929   -4.8618 O.3     1  UNL1       -0.3308
      7 O          17.6438   70.6005   -2.4521 O.3     1  UNL1       -0.3794
      8 O          17.3955   68.7097   -4.4012 O.3     1  UNL1       -0.3779
      9 C          18.8106   70.2913   -3.2147 C.3     1  UNL1        0.1713
     10 C          18.4216   69.6702   -4.5395 C.3     1  UNL1        0.1895
     11 C          19.4469   71.6034   -3.6526 C.3     1  UNL1        0.1764
     12 C          17.9822   70.8842   -5.3401 C.3     1  UNL1        0.2383
     13 H          17.2199   69.7776   -2.1611 H       1  UNL1        0.2105
     14 H          17.7248   67.9569   -3.8846 H       1  UNL1        0.2106
     15 O          15.9553   70.3788   -7.2408 O.2     1  UNL1       -0.2464
     16 O          18.9824   70.2906  -10.7155 O.2     1  UNL1       -0.2670
     17 N          18.2127   70.7249   -6.7480 N.ar    1  UNL1       -0.2551
     18 N          17.4650   70.3344   -8.9694 N.ar    1  UNL1       -0.2743
     19 C          17.1250   70.4736   -7.6174 C.ar    1  UNL1        0.3323
     20 C          19.5032   70.8193   -7.2546 C.ar    1  UNL1        0.0869
     21 C          19.8117   70.6845   -8.5459 C.ar    1  UNL1        0.0795
     22 C          18.7333   70.4194   -9.5206 C.ar    1  UNL1        0.2626
     23 H          16.7247   70.1569   -9.5937 H       1  UNL1        0.1734
     24 O          22.9817   71.0907   -0.8056 O.3     1  UNL1       -0.2703
     25 P          21.8736   71.4441    0.3173 P.3     1  UNL1        0.2208
     26 O          21.7277   70.0587    1.1418 O.co2   1  UNL1       -0.4371
     27 O          20.5824   71.9730   -0.2367 O.2     1  UNL1       -0.5170
     28 O          22.6260   72.4455    1.3339 O.3     1  UNL1       -0.2858
     29 O          24.1514   72.4448    3.1457 O.3     1  UNL1       -0.3226
     30 O          20.9925   74.6016    4.7071 O.3     1  UNL1       -0.3794
     31 O          20.5036   72.2016    3.1148 O.3     1  UNL1       -0.3775
     32 O          23.4105   75.9687    3.8494 O.3     1  UNL1       -0.3792
     33 C          21.8664   74.1267    3.6830 C.3     1  UNL1        0.1718
     34 C          21.7790   72.6024    3.6019 C.3     1  UNL1        0.1968
     35 C          23.2905   74.5600    4.0380 C.3     1  UNL1        0.1723
     36 C          22.8629   72.0405    2.6810 C.3     1  UNL1        0.2706
     37 C          24.3216   73.8604    3.1571 C.3     1  UNL1        0.1830
     38 H          20.0814   74.3380    4.5028 H       1  UNL1        0.2105
     39 H          19.8110   72.5549    3.6943 H       1  UNL1        0.2106
     40 H          22.7595   76.4259    4.4045 H       1  UNL1        0.2106
     41 O          25.6432   74.4356    5.0075 O.co2   1  UNL1       -0.5466
     42 O          26.7335   73.8264    3.0998 O.co2   1  UNL1       -0.5466
     43 C          25.6974   74.0284    3.7152 C.2     1  UNL1        0.0799
@<TRIPOS>UNITY_ATOM_ATTR
2 1
charge -1
26 1
charge -1
41 1
charge -1
@<TRIPOS>BOND
     1     1     4    1
     2     1    24    1
     3     1     2    1
     4     1     3    2
     5    25    28    1
     6    25    24    1
     7    25    26    1
     8    25    27    2
     9     6    11    1
    10     6    12    1
    11    29    36    1
    12    29    37    1
    13     7     9    1
    14     7    13    1
    15     8    10    1
    16     8    14    1
    17     4     5    1
    18    28    36    1
    19    30    33    1
    20    30    38    1
    21    31    34    1
    22    31    39    1
    23    32    35    1
    24    32    40    1
    25    41    43   ar
    26    15    19    2
    27    42    43   ar
    28    16    22    2
    29    17    12    1
    30    17    19   ar
    31    17    20   ar
    32    18    19   ar
    33    18    22   ar
    34    18    23    1
    35     9    10    1
    36     9    11    1
    37    10    12    1
    38    11     5    1
    39    33    34    1
    40    33    35    1
    41    34    36    1
    42    35    37    1
    43    37    43    1
    44    20    21   ar
    45    21    22   ar
@<TRIPOS>MOLECULE
*****
 43 45 0 0 0
SMALL
GASTEIGER

@<TRIPOS>ATOM
      1 P          21.9342   72.4831   -5.8929 P.3     1  UNL1        0.2189
      2 O          21.1342   73.8027   -5.4055 O.co2   1  UNL1       -0.4371
      3 O          23.0980   72.7477   -6.8024 O.2     1  UNL1       -0.5170
      4 O          20.7760   71.5265   -6.4940 O.3     1  UNL1       -0.3112
      5 C          20.1317   71.9163   -7.6929 C.3     1  UNL1        0.1811
      6 O          18.9008   69.9038   -7.2320 O.3     1  UNL1       -0.3308
      7 O          18.0565   69.9828  -10.1082 O.3     1  UNL1       -0.3794
      8 O          15.8670   70.9705   -8.8171 O.3     1  UNL1       -0.3779
      9 C          18.2667   71.0627   -9.1981 C.3     1  UNL1        0.1713
     10 C          17.1278   71.1393   -8.2035 C.3     1  UNL1        0.1895
     11 C          19.4459   70.7017   -8.3051 C.3     1  UNL1        0.1764
     12 C          17.4683   70.0095   -7.2466 C.3     1  UNL1        0.2383
     13 H          17.3077   70.1905  -10.6894 H       1  UNL1        0.2105
     14 H          15.6968   71.7150   -9.4161 H       1  UNL1        0.2106
     15 O          16.2628   68.0732   -5.5810 O.2     1  UNL1       -0.2464
     16 O          15.7299   71.0969   -2.1433 O.2     1  UNL1       -0.2670
     17 N          17.0052   70.2637   -5.9118 N.ar    1  UNL1       -0.2551
     18 N          15.9976   69.5813   -3.8708 N.ar    1  UNL1       -0.2743
     19 C          16.4138   69.2214   -5.1594 C.ar    1  UNL1        0.3323
     20 C          17.1401   71.5321   -5.3605 C.ar    1  UNL1        0.0869
     21 C          16.7388   71.8599   -4.1308 C.ar    1  UNL1        0.0795
     22 C          16.1099   70.8291   -3.2792 C.ar    1  UNL1        0.2626
     23 H          15.5810   68.8729   -3.3287 H       1  UNL1        0.1734
     24 O          22.3190   71.7572   -4.5008 O.3     1  UNL1       -0.2703
     25 P          23.5156   72.0405   -3.4513 P.3     1  UNL1        0.2208
     26 O          24.4704   73.0756   -4.2496 O.co2   1  UNL1       -0.4371
     27 O          24.2144   70.8036   -2.9656 O.2     1  UNL1       -0.5170
     28 O          22.8374   72.9273   -2.2869 O.3     1  UNL1       -0.2858
     29 O          21.6447   71.6942   -0.6541 O.3     1  UNL1       -0.3226
     30 O          20.5399   75.5716    0.2478 O.3     1  UNL1       -0.3794
     31 O          20.6952   74.6844   -2.5313 O.3     1  UNL1       -0.3775
     32 O          22.4724   74.1797    1.9148 O.3     1  UNL1       -0.3792
     33 C          21.4089   74.5388   -0.2171 C.3     1  UNL1        0.1718
     34 C          20.7626   73.8210   -1.4023 C.3     1  UNL1        0.1968
     35 C          21.6397   73.5601    0.9364 C.3     1  UNL1        0.1723
     36 C          21.5534   72.5677   -1.7802 C.3     1  UNL1        0.2706
     37 C          22.3208   72.2822    0.4550 C.3     1  UNL1        0.1830
     38 H          20.3788   76.2057   -0.4686 H       1  UNL1        0.2105
     39 H          20.1950   75.4819   -2.2985 H       1  UNL1        0.2106
     40 H          22.0504   74.9944    2.2294 H       1  UNL1        0.2106
     41 O          21.5494   70.1455    1.0391 O.co2   1  UNL1       -0.5466
     42 O          22.7405   71.2875    2.6127 O.co2   1  UNL1       -0.5466
     43 C          22.2449   71.2153    1.4982 C.2     1  UNL1        0.0799
@<TRIPOS>UNITY_ATOM_ATTR
2 1
charge -1
26 1
charge -1
41 1
charge -1
@<TRIPOS>BOND
     1     1     4    1
     2     1    24    1
     3     1     2    1
     4     1     3    2
     5    25    28    1
     6    25    24    1
     7    25    26    1
     8    25    27    2
     9     6    11    1
    10     6    12    1
    11    29    36    1
    12    29    37    1
    13     7     9    1
    14     7    13    1
    15     8    10    1
    16     8    14    1
    17     4     5    1
    18    28    36    1
    19    30    33    1
    20    30    38    1
    21    31    34    1
    22    31    39    1
    23    32    35    1
    24    32    40    1
    25    41    43   ar
    26    15    19    2
    27    42    43   ar
    28    16    22    2
    29    17    12    1
    30    17    19   ar
    31    17    20   ar
    32    18    19   ar
    33    18    22   ar
    34    18    23    1
    35     9    10    1
    36     9    11    1
    37    10    12    1
    38    11     5    1
    39    33    34    1
    40    33    35    1
    41    34    36    1
    42    35    37    1
    43    37    43    1
    44    20    21   ar
    45    21    22   ar
@<TRIPOS>MOLECULE
*****
 43 45 0 0 0
SMALL
GASTEIGER

@<TRIPOS>ATOM
      1 P          21.6035   72.5742   -4.8180 P.3     1  UNL1        0.2189
      2 O          21.2042   74.1403   -4.9020 O.co2   1  UNL1       -0.4371
      3 O          22.6726   72.1407   -5.7777 O.2     1  UNL1       -0.5170
      4 O          20.1865   71.8044   -4.9502 O.3     1  UNL1       -0.3112
      5 C          19.6353   71.1997   -3.7948 C.3     1  UNL1        0.1811
      6 O          17.7460   71.7691   -5.1673 O.3     1  UNL1       -0.3308
      7 O          16.0780   70.2947   -3.1585 O.3     1  UNL1       -0.3794
      8 O          16.3129   68.4827   -5.1827 O.3     1  UNL1       -0.3779
      9 C          17.3955   70.0049   -3.6261 C.3     1  UNL1        0.1713
     10 C          17.3410   69.4388   -5.0292 C.3     1  UNL1        0.1895
     11 C          18.1182   71.3272   -3.8439 C.3     1  UNL1        0.1764
     12 C          17.1086   70.6866   -5.8639 C.3     1  UNL1        0.2383
     13 H          15.5967   69.4649   -3.0121 H       1  UNL1        0.2105
     14 H          16.5072   67.7077   -4.6318 H       1  UNL1        0.2106
     15 O          15.6040   70.6973   -8.2540 O.2     1  UNL1       -0.2464
     16 O          19.3870   70.2704  -10.8522 O.2     1  UNL1       -0.2670
     17 N          17.6748   70.5797   -7.1788 N.ar    1  UNL1       -0.2551
     18 N          17.4895   70.4836   -9.5457 N.ar    1  UNL1       -0.2743
     19 C          16.8307   70.5950   -8.3142 C.ar    1  UNL1        0.3323
     20 C          19.0508   70.4630   -7.3339 C.ar    1  UNL1        0.0869
     21 C          19.6642   70.3578   -8.5144 C.ar    1  UNL1        0.0795
     22 C          18.8546   70.3648   -9.7505 C.ar    1  UNL1        0.2626
     23 H          16.9225   70.4899  -10.3506 H       1  UNL1        0.1734
     24 O          21.9792   72.3786   -3.2581 O.3     1  UNL1       -0.2703
     25 P          23.4029   72.1358   -2.5316 P.3     1  UNL1        0.2208
     26 O          24.2154   73.5004   -2.8447 O.co2   1  UNL1       -0.4371
     27 O          24.1087   70.8830   -2.9632 O.2     1  UNL1       -0.5170
     28 O          23.0752   72.2099   -0.9538 O.3     1  UNL1       -0.2858
     29 O          24.3423   70.9950    0.6361 O.3     1  UNL1       -0.3226
     30 O          20.8727   71.7695    2.7408 O.3     1  UNL1       -0.3794
     31 O          20.7541   70.9620   -0.0642 O.3     1  UNL1       -0.3775
     32 O          23.2914   73.2790    3.3084 O.3     1  UNL1       -0.3792
     33 C          21.9037   72.0273    1.7877 C.3     1  UNL1        0.1718
     34 C          21.9251   70.9116    0.7426 C.3     1  UNL1        0.1968
     35 C          23.2373   72.0808    2.5364 C.3     1  UNL1        0.1723
     36 C          23.1557   71.0289   -0.1578 C.3     1  UNL1        0.2706
     37 C          24.4191   72.0687    1.5711 C.3     1  UNL1        0.1830
     38 H          20.0156   71.7311    2.2878 H       1  UNL1        0.2105
     39 H          19.9694   70.8883    0.5007 H       1  UNL1        0.2106
     40 H          22.5444   73.2992    3.9268 H       1  UNL1        0.2106
     41 O          26.1500   72.9105    2.9116 O.co2   1  UNL1       -0.5466
     42 O          26.2555   70.7057    2.3399 O.co2   1  UNL1       -0.5466
     43 C          25.6946   71.7904    2.2976 C.2     1  UNL1        0.0799
@<TRIPOS>UNITY_ATOM_ATTR
2 1
charge -1
26 1
charge -1
41 1
charge -1
@<TRIPOS>BOND
     1     1     4    1
     2     1    24    1
     3     1     2    1
     4     1     3    2
     5    25    28    1
     6    25    24    1
     7    25    26    1
     8    25    27    2
     9     6    11    1
    10     6    12    1
    11    29    36    1
    12    29    37    1
    13     7     9    1
    14     7    13    1
    15     8    10    1
    16     8    14    1
    17     4     5    1
    18    28    36    1
    19    30    33    1
    20    30    38    1
    21    31    34    1
    22    31    39    1
    23    32    35    1
    24    32    40    1
    25    41    43   ar
    26    15    19    2
    27    42    43   ar
    28    16    22    2
    29    17    12    1
    30    17    19   ar
    31    17    20   ar
    32    18    19   ar
    33    18    22   ar
    34    18    23    1
    35     9    10    1
    36     9    11    1
    37    10    12    1
    38    11     5    1
    39    33    34    1
    40    33    35    1
    41    34    36    1
    42    35    37    1
    43    37    43    1
    44    20    21   ar
    45    21    22   ar
@<TRIPOS>MOLECULE
*****
 43 45 0 0 0
SMALL
GASTEIGER

@<TRIPOS>ATOM
      1 P          20.8210   72.1822   -1.2521 P.3     1  UNL1        0.2189
      2 O          19.9532   70.8174   -1.1974 O.co2   1  UNL1       -0.4371
      3 O          20.2344   73.3368   -0.4941 O.2     1  UNL1       -0.5170
      4 O          21.0590   72.4283   -2.8335 O.3     1  UNL1       -0.3112
      5 C          20.5256   71.4915   -3.7513 C.3     1  UNL1        0.1811
      6 O          20.8503   70.5359   -5.9328 O.3     1  UNL1       -0.3308
      7 O          23.1312   72.4594   -6.2316 O.3     1  UNL1       -0.3794
      8 O          21.1429   73.6675   -7.6538 O.3     1  UNL1       -0.3779
      9 C          21.8763   72.6408   -5.5753 C.3     1  UNL1        0.1713
     10 C          20.7707   72.8092   -6.5959 C.3     1  UNL1        0.1895
     11 C          21.4988   71.3238   -4.9110 C.3     1  UNL1        0.1764
     12 C          20.5449   71.3788   -7.0552 C.3     1  UNL1        0.2383
     13 H          23.3933   73.2878   -6.6636 H       1  UNL1        0.2105
     14 H          21.2746   74.5656   -7.3104 H       1  UNL1        0.2106
     15 O          19.7372   70.9192   -9.7222 O.2     1  UNL1       -0.2464
     16 O          15.3149   70.4799   -8.4997 O.2     1  UNL1       -0.2670
     17 N          19.1888   71.1414   -7.4620 N.ar    1  UNL1       -0.2551
     18 N          17.5353   70.7018   -9.1109 N.ar    1  UNL1       -0.2743
     19 C          18.8896   70.9219   -8.8274 C.ar    1  UNL1        0.3323
     20 C          18.1729   71.1261   -6.5140 C.ar    1  UNL1        0.0869
     21 C          16.8865   70.9149   -6.7995 C.ar    1  UNL1        0.0795
     22 C          16.4892   70.6779   -8.2028 C.ar    1  UNL1        0.2626
     23 H          17.3022   70.5486  -10.0551 H       1  UNL1        0.1734
     24 O          22.2771   71.7074   -0.7350 O.3     1  UNL1       -0.2703
     25 P          22.7646   71.1568    0.7047 P.3     1  UNL1        0.2208
     26 O          24.3009   70.7243    0.4344 O.co2   1  UNL1       -0.4371
     27 O          21.9045   70.0635    1.2693 O.2     1  UNL1       -0.5170
     28 O          22.8693   72.4727    1.6321 O.3     1  UNL1       -0.2858
     29 O          24.1918   72.9923    3.5268 O.3     1  UNL1       -0.3226
     30 O          20.6380   74.8932    4.4352 O.3     1  UNL1       -0.3794
     31 O          20.6285   72.2186    3.2601 O.3     1  UNL1       -0.3775
     32 O          22.9310   76.4380    3.5370 O.3     1  UNL1       -0.3792
     33 C          21.6648   74.3887    3.5813 C.3     1  UNL1        0.1718
     34 C          21.7854   72.8756    3.7648 C.3     1  UNL1        0.1968
     35 C          22.9773   75.0773    3.9621 C.3     1  UNL1        0.1723
     36 C          23.0203   72.3338    3.0437 C.3     1  UNL1        0.2706
     37 C          24.1741   74.4000    3.3006 C.3     1  UNL1        0.1830
     38 H          19.7942   74.4698    4.2117 H       1  UNL1        0.2105
     39 H          19.8411   72.5578    3.7131 H       1  UNL1        0.2106
     40 H          22.1735   76.8805    3.9509 H       1  UNL1        0.2106
     41 O          25.4300   74.6562    5.2649 O.co2   1  UNL1       -0.5466
     42 O          26.3957   75.3410    3.3162 O.co2   1  UNL1       -0.5466
     43 C          25.4531   74.8561    3.9239 C.2     1  UNL1        0.0799
@<TRIPOS>UNITY_ATOM_ATTR
2 1
charge -1
26 1
charge -1
41 1
charge -1
@<TRIPOS>BOND
     1     1     4    1
     2     1    24    1
     3     1     2    1
     4     1     3    2
     5    25    28    1
     6    25    24    1
     7    25    26    1
     8    25    27    2
     9     6    11    1
    10     6    12    1
    11    29    36    1
    12    29    37    1
    13     7     9    1
    14     7    13    1
    15     8    10    1
    16     8    14    1
    17     4     5    1
    18    28    36    1
    19    30    33    1
    20    30    38    1
    21    31    34    1
    22    31    39    1
    23    32    35    1
    24    32    40    1
    25    41    43   ar
    26    15    19    2
    27    42    43   ar
    28    16    22    2
    29    17    12    1
    30    17    19   ar
    31    17    20   ar
    32    18    19   ar
    33    18    22   ar
    34    18    23    1
    35     9    10    1
    36     9    11    1
    37    10    12    1
    38    11     5    1
    39    33    34    1
    40    33    35    1
    41    34    36    1
    42    35    37    1
    43    37    43    1
    44    20    21   ar
    45    21    22   ar
@<TRIPOS>MOLECULE
*****
 43 45 0 0 0
SMALL
GASTEIGER

@<TRIPOS>ATOM
      1 P          23.5142   73.5959   -4.1814 P.3     1  UNL1        0.2189
      2 O          22.7505   75.0027   -4.4193 O.co2   1  UNL1       -0.4371
      3 O          25.0056   73.6987   -4.0516 O.2     1  UNL1       -0.5170
      4 O          22.9767   72.6542   -5.3823 O.3     1  UNL1       -0.3112
      5 C          21.6547   72.1528   -5.3084 C.3     1  UNL1        0.1811
      6 O          20.4816   70.3125   -6.3157 O.3     1  UNL1       -0.3308
      7 O          20.7104   71.8215   -8.8968 O.3     1  UNL1       -0.3794
      8 O          18.1429   72.3325   -8.1335 O.3     1  UNL1       -0.3779
      9 C          20.5090   72.3193   -7.5738 C.3     1  UNL1        0.1713
     10 C          19.0888   72.0507   -7.1233 C.3     1  UNL1        0.1895
     11 C          21.3160   71.4517   -6.6176 C.3     1  UNL1        0.1764
     12 C          19.1440   70.5744   -6.7693 C.3     1  UNL1        0.2383
     13 H          20.2044   72.3601   -9.5258 H       1  UNL1        0.2105
     14 H          18.1457   73.2844   -8.3226 H       1  UNL1        0.2106
     15 O          16.4359   69.8971   -7.1978 O.2     1  UNL1       -0.2464
     16 O          15.6942   69.2549   -2.6943 O.2     1  UNL1       -0.2670
     17 N          18.2208   70.2260   -5.7266 N.ar    1  UNL1       -0.2551
     18 N          16.0688   69.5789   -4.9543 N.ar    1  UNL1       -0.2743
     19 C          16.8816   69.9021   -6.0488 C.ar    1  UNL1        0.3323
     20 C          18.6444   70.2058   -4.4033 C.ar    1  UNL1        0.0869
     21 C          17.8580   69.8955   -3.3708 C.ar    1  UNL1        0.0795
     22 C          16.4444   69.5457   -3.6211 C.ar    1  UNL1        0.2626
     23 H          15.1318   69.3518   -5.1534 H       1  UNL1        0.1734
     24 O          22.7653   72.9916   -2.8826 O.3     1  UNL1       -0.2703
     25 P          22.8703   71.5414   -2.1758 P.3     1  UNL1        0.2208
     26 O          24.2200   70.9158   -2.8140 O.co2   1  UNL1       -0.4371
     27 O          21.6503   70.6834   -2.3464 O.2     1  UNL1       -0.5170
     28 O          23.2552   71.8606   -0.6420 O.3     1  UNL1       -0.2858
     29 O          24.6053   70.8507    1.0212 O.3     1  UNL1       -0.3226
     30 O          21.2557   71.9182    3.1912 O.3     1  UNL1       -0.3794
     31 O          20.9844   70.7567    0.5244 O.3     1  UNL1       -0.3775
     32 O          23.7033   73.4687    3.4285 O.3     1  UNL1       -0.3792
     33 C          22.2339   72.0426    2.1589 C.3     1  UNL1        0.1718
     34 C          22.1974   70.8013    1.2670 C.3     1  UNL1        0.1968
     35 C          23.6061   72.1814    2.8219 C.3     1  UNL1        0.1723
     36 C          23.3775   70.7916    0.2944 C.3     1  UNL1        0.2706
     37 C          24.7338   72.0354    1.8043 C.3     1  UNL1        0.1830
     38 H          20.3753   71.8286    2.7936 H       1  UNL1        0.2105
     39 H          20.2314   70.7628    1.1354 H       1  UNL1        0.2106
     40 H          22.9910   73.5745    4.0783 H       1  UNL1        0.2106
     41 O          26.4260   72.9795    3.1259 O.co2   1  UNL1       -0.5466
     42 O          26.6943   70.8067    2.4886 O.co2   1  UNL1       -0.5466
     43 C          26.0465   71.8428    2.4912 C.2     1  UNL1        0.0799
@<TRIPOS>UNITY_ATOM_ATTR
2 1
charge -1
26 1
charge -1
41 1
charge -1
@<TRIPOS>BOND
     1     1     4    1
     2     1    24    1
     3     1     2    1
     4     1     3    2
     5    25    28    1
     6    25    24    1
     7    25    26    1
     8    25    27    2
     9     6    11    1
    10     6    12    1
    11    29    36    1
    12    29    37    1
    13     7     9    1
    14     7    13    1
    15     8    10    1
    16     8    14    1
    17     4     5    1
    18    28    36    1
    19    30    33    1
    20    30    38    1
    21    31    34    1
    22    31    39    1
    23    32    35    1
    24    32    40    1
    25    41    43   ar
    26    15    19    2
    27    42    43   ar
    28    16    22    2
    29    17    12    1
    30    17    19   ar
    31    17    20   ar
    32    18    19   ar
    33    18    22   ar
    34    18    23    1
    35     9    10    1
    36     9    11    1
    37    10    12    1
    38    11     5    1
    39    33    34    1
    40    33    35    1
    41    34    36    1
    42    35    37    1
    43    37    43    1
    44    20    21   ar
    45    21    22   ar
@<TRIPOS>MOLECULE
*****
 43 45 0 0 0
SMALL
GASTEIGER

@<TRIPOS>ATOM
      1 P          22.4603   71.5815   -1.7176 P.3     1  UNL1        0.2189
      2 O          23.7400   70.7746   -2.2922 O.co2   1  UNL1       -0.4371
      3 O          21.1578   70.8401   -1.7927 O.2     1  UNL1       -0.5170
      4 O          22.5095   72.9965   -2.5008 O.3     1  UNL1       -0.3112
      5 C          21.6778   73.1718   -3.6331 C.3     1  UNL1        0.1811
      6 O          21.6789   71.1521   -4.9364 O.3     1  UNL1       -0.3308
      7 O          23.0689   72.7454   -7.0625 O.3     1  UNL1       -0.3794
      8 O          20.4939   72.6765   -7.9574 O.3     1  UNL1       -0.3779
      9 C          22.0491   73.1524   -6.1499 C.3     1  UNL1        0.1713
     10 C          20.7127   72.5751   -6.5658 C.3     1  UNL1        0.1895
     11 C          22.2998   72.4508   -4.8220 C.3     1  UNL1        0.1764
     12 C          20.8310   71.1353   -6.0958 C.3     1  UNL1        0.2383
     13 H          22.9298   73.1809   -7.9185 H       1  UNL1        0.2105
     14 H          20.4255   73.6120   -8.2066 H       1  UNL1        0.2106
     15 O          18.8644   70.3257   -7.9541 O.2     1  UNL1       -0.2464
     16 O          15.9956   68.9785   -4.6076 O.2     1  UNL1       -0.2670
     17 N          19.5611   70.5698   -5.7375 N.ar    1  UNL1       -0.2551
     18 N          17.4371   69.6564   -6.2856 N.ar    1  UNL1       -0.2743
     19 C          18.6442   70.1964   -6.7484 C.ar    1  UNL1        0.3323
     20 C          19.2355   70.3885   -4.3988 C.ar    1  UNL1        0.0869
     21 C          18.0809   69.8724   -3.9730 C.ar    1  UNL1        0.0795
     22 C          17.0676   69.4573   -4.9652 C.ar    1  UNL1        0.2626
     23 H          16.7819   69.3909   -6.9709 H       1  UNL1        0.1734
     24 O          22.9238   71.9784   -0.2208 O.3     1  UNL1       -0.2703
     25 P          22.9088   71.1297    1.1552 P.3     1  UNL1        0.2208
     26 O          24.3812   70.4583    1.1916 O.co2   1  UNL1       -0.4371
     27 O          21.7783   70.1474    1.2605 O.2     1  UNL1       -0.5170
     28 O          22.9397   72.2425    2.3228 O.3     1  UNL1       -0.2858
     29 O          22.5160   72.5544    4.6319 O.3     1  UNL1       -0.3226
     30 O          20.1075   75.4514    2.9364 O.3     1  UNL1       -0.3794
     31 O          20.2713   72.7845    1.7552 O.3     1  UNL1       -0.3775
     32 O          22.6074   76.1990    4.2181 O.3     1  UNL1       -0.3792
     33 C          21.2487   74.5993    3.0348 C.3     1  UNL1        0.1718
     34 C          20.7984   73.1383    3.0287 C.3     1  UNL1        0.1968
     35 C          21.9727   74.9277    4.3425 C.3     1  UNL1        0.1723
     36 C          21.9635   72.2054    3.3621 C.3     1  UNL1        0.2706
     37 C          23.0350   73.8820    4.6689 C.3     1  UNL1        0.1830
     38 H          19.6315   75.2608    2.1128 H       1  UNL1        0.2105
     39 H          19.5318   73.3727    1.5371 H       1  UNL1        0.2106
     40 H          21.9422   76.8736    4.0102 H       1  UNL1        0.2106
     41 O          24.4956   74.9376    6.1701 O.co2   1  UNL1       -0.5466
     42 O          23.0490   73.4008    7.0331 O.co2   1  UNL1       -0.5466
     43 C          23.4999   74.0212    6.0819 C.2     1  UNL1        0.0799
@<TRIPOS>UNITY_ATOM_ATTR
2 1
charge -1
26 1
charge -1
41 1
charge -1
@<TRIPOS>BOND
     1     1     4    1
     2     1    24    1
     3     1     2    1
     4     1     3    2
     5    25    28    1
     6    25    24    1
     7    25    26    1
     8    25    27    2
     9     6    11    1
    10     6    12    1
    11    29    36    1
    12    29    37    1
    13     7     9    1
    14     7    13    1
    15     8    10    1
    16     8    14    1
    17     4     5    1
    18    28    36    1
    19    30    33    1
    20    30    38    1
    21    31    34    1
    22    31    39    1
    23    32    35    1
    24    32    40    1
    25    41    43   ar
    26    15    19    2
    27    42    43   ar
    28    16    22    2
    29    17    12    1
    30    17    19   ar
    31    17    20   ar
    32    18    19   ar
    33    18    22   ar
    34    18    23    1
    35     9    10    1
    36     9    11    1
    37    10    12    1
    38    11     5    1
    39    33    34    1
    40    33    35    1
    41    34    36    1
    42    35    37    1
    43    37    43    1
    44    20    21   ar
    45    21    22   ar
@<TRIPOS>MOLECULE
*****
 43 45 0 0 0
SMALL
GASTEIGER

@<TRIPOS>ATOM
      1 P          23.5046   72.4677   -3.5854 P.3     1  UNL1        0.2189
      2 O          24.0913   71.0063   -3.2126 O.co2   1  UNL1       -0.4371
      3 O          24.4944   73.4076   -4.2089 O.2     1  UNL1       -0.5170
      4 O          22.8242   72.9761   -2.2083 O.3     1  UNL1       -0.3112
      5 C          21.9102   74.0559   -2.2641 C.3     1  UNL1        0.1811
      6 O          21.0920   72.6111   -0.5262 O.3     1  UNL1       -0.3308
      7 O          19.1959   74.8280    0.1679 O.3     1  UNL1       -0.3794
      8 O          21.1437   75.0962    2.0575 O.3     1  UNL1       -0.3779
      9 C          20.5457   74.9039   -0.2915 C.3     1  UNL1        0.1713
     10 C          21.4998   74.5183    0.8190 C.3     1  UNL1        0.1895
     11 C          20.7621   73.7845   -1.3005 C.3     1  UNL1        0.1764
     12 C          21.3813   73.0038    0.8249 C.3     1  UNL1        0.2383
     13 H          19.0338   75.5337    0.8140 H       1  UNL1        0.2105
     14 H          21.2359   76.0608    2.0026 H       1  UNL1        0.2106
     15 O          21.6690   70.2162    1.1763 O.2     1  UNL1       -0.2464
     16 O          26.0763   70.6481    2.4544 O.2     1  UNL1       -0.2670
     17 N          22.5929   72.3609    1.2487 N.ar    1  UNL1       -0.2551
     18 N          23.8635   70.4341    1.8135 N.ar    1  UNL1       -0.2743
     19 C          22.6318   70.9540    1.3944 C.ar    1  UNL1        0.3323
     20 C          23.7255   73.1213    1.5134 C.ar    1  UNL1        0.0869
     21 C          24.8925   72.6114    1.9120 C.ar    1  UNL1        0.0795
     22 C          25.0173   71.1497    2.0895 C.ar    1  UNL1        0.2626
     23 H          23.9144   69.4571    1.9240 H       1  UNL1        0.1734
     24 O          22.2285   72.1202   -4.5146 O.3     1  UNL1       -0.2703
     25 P          21.5919   72.9012   -5.7789 P.3     1  UNL1        0.2208
     26 O          22.5331   72.4381   -7.0118 O.co2   1  UNL1       -0.4371
     27 O          21.4957   74.3886   -5.5991 O.2     1  UNL1       -0.5170
     28 O          20.1807   72.1665   -6.0457 O.3     1  UNL1       -0.2858
     29 O          19.4999   69.9871   -5.4163 O.3     1  UNL1       -0.3226
     30 O          17.3467   70.5690   -8.8939 O.3     1  UNL1       -0.3794
     31 O          20.1388   71.4115   -8.7223 O.3     1  UNL1       -0.3775
     32 O          16.0242   70.7491   -6.3113 O.3     1  UNL1       -0.3792
     33 C          17.9948   70.9561   -7.6821 C.3     1  UNL1        0.1718
     34 C          19.4792   70.5983   -7.7588 C.3     1  UNL1        0.1968
     35 C          17.3256   70.2068   -6.5278 C.3     1  UNL1        0.1723
     36 C          20.1578   70.7852   -6.4011 C.3     1  UNL1        0.2706
     37 C          18.1297   70.3386   -5.2376 C.3     1  UNL1        0.1830
     38 H          17.7554   71.0328   -9.6417 H       1  UNL1        0.2105
     39 H          19.7131   71.2981   -9.5862 H       1  UNL1        0.2106
     40 H          15.5021   70.6715   -7.1251 H       1  UNL1        0.2106
     41 O          16.6457   68.6006   -4.7096 O.co2   1  UNL1       -0.5466
     42 O          18.1243   69.2328   -3.0931 O.co2   1  UNL1       -0.5466
     43 C          17.6609   69.3529   -4.2173 C.2     1  UNL1        0.0799
@<TRIPOS>UNITY_ATOM_ATTR
2 1
charge -1
26 1
charge -1
41 1
charge -1
@<TRIPOS>BOND
     1     1     4    1
     2     1    24    1
     3     1     2    1
     4     1     3    2
     5    25    28    1
     6    25    24    1
     7    25    26    1
     8    25    27    2
     9     6    11    1
    10     6    12    1
    11    29    36    1
    12    29    37    1
    13     7     9    1
    14     7    13    1
    15     8    10    1
    16     8    14    1
    17     4     5    1
    18    28    36    1
    19    30    33    1
    20    30    38    1
    21    31    34    1
    22    31    39    1
    23    32    35    1
    24    32    40    1
    25    41    43   ar
    26    15    19    2
    27    42    43   ar
    28    16    22    2
    29    17    12    1
    30    17    19   ar
    31    17    20   ar
    32    18    19   ar
    33    18    22   ar
    34    18    23    1
    35     9    10    1
    36     9    11    1
    37    10    12    1
    38    11     5    1
    39    33    34    1
    40    33    35    1
    41    34    36    1
    42    35    37    1
    43    37    43    1
    44    20    21   ar
    45    21    22   ar
@<TRIPOS>MOLECULE
*****
 43 45 0 0 0
SMALL
GASTEIGER

@<TRIPOS>ATOM
      1 P          20.6005   72.2048   -1.1889 P.3     1  UNL1        0.2189
      2 O          20.0558   70.6820   -1.1326 O.co2   1  UNL1       -0.4371
      3 O          19.6884   73.2269   -0.5765 O.2     1  UNL1       -0.5170
      4 O          20.9618   72.4308   -2.7497 O.3     1  UNL1       -0.3112
      5 C          20.4481   71.5174   -3.7018 C.3     1  UNL1        0.1811
      6 O          20.8095   70.6256   -5.9044 O.3     1  UNL1       -0.3308
      7 O          23.0643   72.5897   -6.1274 O.3     1  UNL1       -0.3794
      8 O          21.0728   73.8061   -7.5381 O.3     1  UNL1       -0.3779
      9 C          21.8001   72.7350   -5.4800 C.3     1  UNL1        0.1713
     10 C          20.7026   72.9144   -6.5075 C.3     1  UNL1        0.1895
     11 C          21.4356   71.3952   -4.8551 C.3     1  UNL1        0.1764
     12 C          20.5030   71.4936   -7.0071 C.3     1  UNL1        0.2383
     13 H          23.3184   73.4332   -6.5344 H       1  UNL1        0.2105
     14 H          21.1875   74.6966   -7.1695 H       1  UNL1        0.2106
     15 O          19.7784   70.6945   -9.6172 O.2     1  UNL1       -0.2464
     16 O          15.2997   70.5774   -8.5347 O.2     1  UNL1       -0.2670
     17 N          19.1549   71.2474   -7.4345 N.ar    1  UNL1       -0.2551
     18 N          17.5484   70.6380   -9.0759 N.ar    1  UNL1       -0.2743
     19 C          18.8987   70.8500   -8.7682 C.ar    1  UNL1        0.3323
     20 C          18.1044   71.3981   -6.5375 C.ar    1  UNL1        0.0869
     21 C          16.8224   71.1922   -6.8455 C.ar    1  UNL1        0.0795
     22 C          16.4689   70.7756   -8.2184 C.ar    1  UNL1        0.2626
     23 H          17.3450   70.3626   -9.9990 H       1  UNL1        0.1734
     24 O          22.0546   72.0961   -0.4914 O.3     1  UNL1       -0.2703
     25 P          22.5606   71.2338    0.7791 P.3     1  UNL1        0.2208
     26 O          24.0883   70.8651    0.3911 O.co2   1  UNL1       -0.4371
     27 O          21.7001   70.0461    1.0994 O.2     1  UNL1       -0.5170
     28 O          22.6923   72.3074    1.9761 O.3     1  UNL1       -0.2858
     29 O          21.2612   74.1845    2.1691 O.3     1  UNL1       -0.3226
     30 O          24.5184   75.3763    4.4137 O.3     1  UNL1       -0.3794
     31 O          24.8999   73.9959    1.8674 O.3     1  UNL1       -0.3775
     32 O          22.0749   74.5143    5.7316 O.3     1  UNL1       -0.3792
     33 C          23.5885   74.4464    3.8583 C.3     1  UNL1        0.1718
     34 C          23.6553   74.5055    2.3320 C.3     1  UNL1        0.1968
     35 C          22.1891   74.8291    4.3451 C.3     1  UNL1        0.1723
     36 C          22.5199   73.6968    1.7030 C.3     1  UNL1        0.2706
     37 C          21.1070   74.0705    3.5821 C.3     1  UNL1        0.1830
     38 H          25.4151   75.1530    4.1179 H       1  UNL1        0.2105
     39 H          25.6248   74.5043    2.2628 H       1  UNL1        0.2106
     40 H          22.7582   74.9907    6.2287 H       1  UNL1        0.2106
     41 O          19.7902   76.0115    3.5794 O.co2   1  UNL1       -0.5466
     42 O          18.7713   74.0642    4.1870 O.co2   1  UNL1       -0.5466
     43 C          19.7634   74.6778    3.8230 C.2     1  UNL1        0.0799
@<TRIPOS>UNITY_ATOM_ATTR
2 1
charge -1
26 1
charge -1
41 1
charge -1
@<TRIPOS>BOND
     1     1     4    1
     2     1    24    1
     3     1     2    1
     4     1     3    2
     5    25    28    1
     6    25    24    1
     7    25    26    1
     8    25    27    2
     9     6    11    1
    10     6    12    1
    11    29    36    1
    12    29    37    1
    13     7     9    1
    14     7    13    1
    15     8    10    1
    16     8    14    1
    17     4     5    1
    18    28    36    1
    19    30    33    1
    20    30    38    1
    21    31    34    1
    22    31    39    1
    23    32    35    1
    24    32    40    1
    25    41    43   ar
    26    15    19    2
    27    42    43   ar
    28    16    22    2
    29    17    12    1
    30    17    19   ar
    31    17    20   ar
    32    18    19   ar
    33    18    22   ar
    34    18    23    1
    35     9    10    1
    36     9    11    1
    37    10    12    1
    38    11     5    1
    39    33    34    1
    40    33    35    1
    41    34    36    1
    42    35    37    1
    43    37    43    1
    44    20    21   ar
    45    21    22   ar
@<TRIPOS>MOLECULE
*****
 43 45 0 0 0
SMALL
GASTEIGER

@<TRIPOS>ATOM
      1 P          22.5639   72.4546   -1.1886 P.3     1  UNL1        0.2189
      2 O          23.3035   73.8780   -1.4029 O.co2   1  UNL1       -0.4371
      3 O          23.4793   71.3036   -0.8903 O.2     1  UNL1       -0.5170
      4 O          21.6402   72.2942   -2.5073 O.3     1  UNL1       -0.3112
      5 C          21.8221   73.2059   -3.5751 C.3     1  UNL1        0.1811
      6 O          21.7563   71.1737   -4.8571 O.3     1  UNL1       -0.3308
      7 O          23.1304   72.7186   -7.0289 O.3     1  UNL1       -0.3794
      8 O          20.5359   72.6907   -7.8677 O.3     1  UNL1       -0.3779
      9 C          22.1386   73.1543   -6.0989 C.3     1  UNL1        0.1713
     10 C          20.7826   72.5989   -6.4802 C.3     1  UNL1        0.1895
     11 C          22.4044   72.4612   -4.7695 C.3     1  UNL1        0.1764
     12 C          20.8835   71.1619   -5.9979 C.3     1  UNL1        0.2383
     13 H          22.9812   73.1481   -7.8862 H       1  UNL1        0.2105
     14 H          20.4800   73.6248   -8.1251 H       1  UNL1        0.2106
     15 O          18.8205   70.4742   -7.8000 O.2     1  UNL1       -0.2464
     16 O          16.0430   69.1089   -4.3846 O.2     1  UNL1       -0.2670
     17 N          19.6110   70.6246   -5.6066 N.ar    1  UNL1       -0.2551
     18 N          17.4387   69.7958   -6.0971 N.ar    1  UNL1       -0.2743
     19 C          18.6436   70.3129   -6.5911 C.ar    1  UNL1        0.3323
     20 C          19.3324   70.4103   -4.2623 C.ar    1  UNL1        0.0869
     21 C          18.1793   69.9166   -3.8067 C.ar    1  UNL1        0.0795
     22 C          17.1151   69.5655   -4.7698 C.ar    1  UNL1        0.2626
     23 H          16.7490   69.5731   -6.7635 H       1  UNL1        0.1734
     24 O          21.4867   72.7766   -0.0273 O.3     1  UNL1       -0.2703
     25 P          21.4287   72.3208    1.5227 P.3     1  UNL1        0.2208
     26 O          21.8207   70.7514    1.4617 O.co2   1  UNL1       -0.4371
     27 O          20.1192   72.6053    2.1997 O.2     1  UNL1       -0.5170
     28 O          22.7045   73.0328    2.2067 O.3     1  UNL1       -0.2858
     29 O          24.4921   71.8508    3.2150 O.3     1  UNL1       -0.3226
     30 O          24.7564   75.5271    5.0813 O.3     1  UNL1       -0.3794
     31 O          22.1539   74.2782    4.6319 O.3     1  UNL1       -0.3775
     32 O          26.6512   74.8094    2.9968 O.3     1  UNL1       -0.3792
     33 C          24.4730   74.6267    4.0104 C.3     1  UNL1        0.1718
     34 C          23.4055   73.6255    4.4524 C.3     1  UNL1        0.1968
     35 C          25.7695   73.8979    3.6497 C.3     1  UNL1        0.1723
     36 C          23.2414   72.5092    3.4200 C.3     1  UNL1        0.2706
     37 C          25.5054   72.7207    2.7154 C.3     1  UNL1        0.1830
     38 H          23.9468   76.0017    5.3278 H       1  UNL1        0.2105
     39 H          22.2507   74.9880    5.2856 H       1  UNL1        0.2106
     40 H          26.8272   75.5635    3.5808 H       1  UNL1        0.2106
     41 O          26.4060   70.6918    1.9579 O.co2   1  UNL1       -0.5466
     42 O          27.7999   72.0845    3.1053 O.co2   1  UNL1       -0.5466
     43 C          26.7019   71.8297    2.6336 C.2     1  UNL1        0.0799
@<TRIPOS>UNITY_ATOM_ATTR
2 1
charge -1
26 1
charge -1
41 1
charge -1
@<TRIPOS>BOND
     1     1     4    1
     2     1    24    1
     3     1     2    1
     4     1     3    2
     5    25    28    1
     6    25    24    1
     7    25    26    1
     8    25    27    2
     9     6    11    1
    10     6    12    1
    11    29    36    1
    12    29    37    1
    13     7     9    1
    14     7    13    1
    15     8    10    1
    16     8    14    1
    17     4     5    1
    18    28    36    1
    19    30    33    1
    20    30    38    1
    21    31    34    1
    22    31    39    1
    23    32    35    1
    24    32    40    1
    25    41    43   ar
    26    15    19    2
    27    42    43   ar
    28    16    22    2
    29    17    12    1
    30    17    19   ar
    31    17    20   ar
    32    18    19   ar
    33    18    22   ar
    34    18    23    1
    35     9    10    1
    36     9    11    1
    37    10    12    1
    38    11     5    1
    39    33    34    1
    40    33    35    1
    41    34    36    1
    42    35    37    1
    43    37    43    1
    44    20    21   ar
    45    21    22   ar
@<TRIPOS>MOLECULE
*****
 43 45 0 0 0
SMALL
GASTEIGER

@<TRIPOS>ATOM
      1 P          20.9091   75.0227   -3.0435 P.3     1  UNL1        0.2189
      2 O          19.8541   75.7365   -2.0454 O.co2   1  UNL1       -0.4371
      3 O          21.1730   75.7634   -4.3216 O.2     1  UNL1       -0.5170
      4 O          20.3323   73.5201   -3.2085 O.3     1  UNL1       -0.3112
      5 C          19.0532   73.3469   -3.7904 C.3     1  UNL1        0.1811
      6 O          17.7648   71.4275   -4.4486 O.3     1  UNL1       -0.3308
      7 O          18.9504   70.0465   -2.0656 O.3     1  UNL1       -0.3794
      8 O          20.4466   69.0700   -4.1256 O.3     1  UNL1       -0.3779
      9 C          19.5465   70.9975   -2.9481 C.3     1  UNL1        0.1713
     10 C          19.8675   70.3491   -4.2780 C.3     1  UNL1        0.1895
     11 C          18.4788   72.0109   -3.3372 C.3     1  UNL1        0.1764
     12 C          18.5019   70.2974   -4.9415 C.3     1  UNL1        0.2383
     13 H          19.6135   69.3885   -1.8031 H       1  UNL1        0.2105
     14 H          21.3141   69.1566   -3.6990 H       1  UNL1        0.2106
     15 O          16.4225   69.5603   -6.7049 O.2     1  UNL1       -0.2464
     16 O          18.9289   70.6626  -10.4125 O.2     1  UNL1       -0.2670
     17 N          18.5843   70.3816   -6.3723 N.ar    1  UNL1       -0.2551
     18 N          17.6732   70.1091   -8.5498 N.ar    1  UNL1       -0.2743
     19 C          17.4827   69.9858   -7.1672 C.ar    1  UNL1        0.3323
     20 C          19.7449   70.8532   -6.9736 C.ar    1  UNL1        0.0869
     21 C          19.9115   70.9651   -8.2929 C.ar    1  UNL1        0.0795
     22 C          18.8089   70.5719   -9.1945 C.ar    1  UNL1        0.2626
     23 H          16.9208   69.8377   -9.1240 H       1  UNL1        0.1734
     24 O          22.2094   74.8119   -2.1066 O.3     1  UNL1       -0.2703
     25 P          23.6016   74.0374   -2.3817 P.3     1  UNL1        0.2208
     26 O          24.4901   75.1406   -3.1650 O.co2   1  UNL1       -0.4371
     27 O          23.4477   72.7351   -3.1126 O.2     1  UNL1       -0.5170
     28 O          24.2943   73.9126   -0.9301 O.3     1  UNL1       -0.2858
     29 O          22.4680   73.1089    0.3457 O.3     1  UNL1       -0.3226
     30 O          25.6258   72.5429    2.9488 O.3     1  UNL1       -0.3794
     31 O          25.4306   74.9917    1.3678 O.3     1  UNL1       -0.3775
     32 O          24.4713   70.2768    1.5407 O.3     1  UNL1       -0.3792
     33 C          24.9854   72.6268    1.6757 C.3     1  UNL1        0.1718
     34 C          24.3942   74.0246    1.4913 C.3     1  UNL1        0.1968
     35 C          23.8785   71.5708    1.6326 C.3     1  UNL1        0.1723
     36 C          23.5070   74.0837    0.2470 C.3     1  UNL1        0.2706
     37 C          22.9614   71.7738    0.4300 C.3     1  UNL1        0.1830
     38 H          26.3332   73.2050    2.9993 H       1  UNL1        0.2105
     39 H          25.9976   74.9596    2.1538 H       1  UNL1        0.2106
     40 H          25.0576   70.1350    2.3003 H       1  UNL1        0.2106
     41 O          20.6532   71.6216    0.0420 O.co2   1  UNL1       -0.5466
     42 O          21.6505   69.8584    1.0887 O.co2   1  UNL1       -0.5466
     43 C          21.7142   70.9635    0.5713 C.2     1  UNL1        0.0799
@<TRIPOS>UNITY_ATOM_ATTR
2 1
charge -1
26 1
charge -1
41 1
charge -1
@<TRIPOS>BOND
     1     1     4    1
     2     1    24    1
     3     1     2    1
     4     1     3    2
     5    25    28    1
     6    25    24    1
     7    25    26    1
     8    25    27    2
     9     6    11    1
    10     6    12    1
    11    29    36    1
    12    29    37    1
    13     7     9    1
    14     7    13    1
    15     8    10    1
    16     8    14    1
    17     4     5    1
    18    28    36    1
    19    30    33    1
    20    30    38    1
    21    31    34    1
    22    31    39    1
    23    32    35    1
    24    32    40    1
    25    41    43   ar
    26    15    19    2
    27    42    43   ar
    28    16    22    2
    29    17    12    1
    30    17    19   ar
    31    17    20   ar
    32    18    19   ar
    33    18    22   ar
    34    18    23    1
    35     9    10    1
    36     9    11    1
    37    10    12    1
    38    11     5    1
    39    33    34    1
    40    33    35    1
    41    34    36    1
    42    35    37    1
    43    37    43    1
    44    20    21   ar
    45    21    22   ar
@<TRIPOS>MOLECULE
*****
 43 45 0 0 0
SMALL
GASTEIGER

@<TRIPOS>ATOM
      1 P          21.9178   72.4454   -5.8424 P.3     1  UNL1        0.2189
      2 O          21.2698   73.8369   -5.3299 O.co2   1  UNL1       -0.4371
      3 O          23.0740   72.5949   -6.7872 O.2     1  UNL1       -0.5170
      4 O          20.6513   71.6122   -6.4081 O.3     1  UNL1       -0.3112
      5 C          20.1267   71.9581   -7.6768 C.3     1  UNL1        0.1811
      6 O          18.9200   69.9304   -7.2183 O.3     1  UNL1       -0.3308
      7 O          18.0976   69.9877  -10.1013 O.3     1  UNL1       -0.3794
      8 O          15.8845   70.9495   -8.8312 O.3     1  UNL1       -0.3779
      9 C          18.2857   71.0736   -9.1936 C.3     1  UNL1        0.1713
     10 C          17.1379   71.1378   -8.2082 C.3     1  UNL1        0.1895
     11 C          19.4626   70.7320   -8.2900 C.3     1  UNL1        0.1764
     12 C          17.4864   70.0162   -7.2446 C.3     1  UNL1        0.2383
     13 H          17.3506   70.1830  -10.6892 H       1  UNL1        0.2105
     14 H          15.7088   71.6894   -9.4342 H       1  UNL1        0.2106
     15 O          16.2950   68.0692   -5.5814 O.2     1  UNL1       -0.2464
     16 O          15.6927   71.0973   -2.1592 O.2     1  UNL1       -0.2670
     17 N          17.0093   70.2686   -5.9144 N.ar    1  UNL1       -0.2551
     18 N          15.9953   69.5795   -3.8789 N.ar    1  UNL1       -0.2743
     19 C          16.4266   69.2209   -5.1629 C.ar    1  UNL1        0.3323
     20 C          17.1220   71.5408   -5.3668 C.ar    1  UNL1        0.0869
     21 C          16.7064   71.8673   -4.1415 C.ar    1  UNL1        0.0795
     22 C          16.0853   70.8308   -3.2910 C.ar    1  UNL1        0.2626
     23 H          15.5843   68.8672   -3.3375 H       1  UNL1        0.1734
     24 O          22.2699   71.6794   -4.4632 O.3     1  UNL1       -0.2703
     25 P          23.3874   71.9840   -3.3353 P.3     1  UNL1        0.2208
     26 O          24.2313   73.2097   -3.9723 O.co2   1  UNL1       -0.4371
     27 O          24.2184   70.7931   -2.9544 O.2     1  UNL1       -0.5170
     28 O          22.5667   72.6459   -2.1143 O.3     1  UNL1       -0.2858
     29 O          23.0200   74.3940   -0.5821 O.3     1  UNL1       -0.3226
     30 O          21.0785   71.6515    1.8216 O.3     1  UNL1       -0.3794
     31 O          23.0682   70.7668   -0.1259 O.3     1  UNL1       -0.3775
     32 O          19.6862   74.0341    0.9075 O.3     1  UNL1       -0.3792
     33 C          21.3738   72.3410    0.6069 C.3     1  UNL1        0.1718
     34 C          22.8416   72.1234    0.2388 C.3     1  UNL1        0.1968
     35 C          21.0956   73.8295    0.8284 C.3     1  UNL1        0.1723
     36 C          23.2539   73.0273   -0.9239 C.3     1  UNL1        0.2706
     37 C          21.6479   74.6756   -0.3151 C.3     1  UNL1        0.1830
     38 H          21.2479   70.7034    1.7049 H       1  UNL1        0.2105
     39 H          22.8085   70.1877    0.6073 H       1  UNL1        0.2106
     40 H          19.3221   73.5010    1.6314 H       1  UNL1        0.2106
     41 O          21.1164   76.3092    1.2818 O.co2   1  UNL1       -0.5466
     42 O          22.1212   77.0193   -0.6378 O.co2   1  UNL1       -0.5466
     43 C          21.6687   76.1223    0.0575 C.2     1  UNL1        0.0799
@<TRIPOS>UNITY_ATOM_ATTR
2 1
charge -1
26 1
charge -1
41 1
charge -1
@<TRIPOS>BOND
     1     1     4    1
     2     1    24    1
     3     1     2    1
     4     1     3    2
     5    25    28    1
     6    25    24    1
     7    25    26    1
     8    25    27    2
     9     6    11    1
    10     6    12    1
    11    29    36    1
    12    29    37    1
    13     7     9    1
    14     7    13    1
    15     8    10    1
    16     8    14    1
    17     4     5    1
    18    28    36    1
    19    30    33    1
    20    30    38    1
    21    31    34    1
    22    31    39    1
    23    32    35    1
    24    32    40    1
    25    41    43   ar
    26    15    19    2
    27    42    43   ar
    28    16    22    2
    29    17    12    1
    30    17    19   ar
    31    17    20   ar
    32    18    19   ar
    33    18    22   ar
    34    18    23    1
    35     9    10    1
    36     9    11    1
    37    10    12    1
    38    11     5    1
    39    33    34    1
    40    33    35    1
    41    34    36    1
    42    35    37    1
    43    37    43    1
    44    20    21   ar
    45    21    22   ar
@<TRIPOS>MOLECULE
*****
 43 45 0 0 0
SMALL
GASTEIGER

@<TRIPOS>ATOM
      1 P          23.4701   72.3265   -3.4984 P.3     1  UNL1        0.2189
      2 O          24.0855   70.8610   -3.1947 O.co2   1  UNL1       -0.4371
      3 O          24.4599   73.3386   -3.9961 O.2     1  UNL1       -0.5170
      4 O          22.6963   72.7139   -2.1313 O.3     1  UNL1       -0.3112
      5 C          23.4304   72.7323   -0.9208 C.3     1  UNL1        0.1811
      6 O          24.4328   71.0571    0.4816 O.3     1  UNL1       -0.3308
      7 O          21.6354   70.2090    1.1504 O.3     1  UNL1       -0.3794
      8 O          22.3484   71.6834    3.3307 O.3     1  UNL1       -0.3779
      9 C          22.1500   71.5195    0.9129 C.3     1  UNL1        0.1713
     10 C          22.9694   71.9836    2.0984 C.3     1  UNL1        0.1895
     11 C          23.2028   71.4194   -0.1825 C.3     1  UNL1        0.1764
     12 C          24.2704   71.2248    1.8990 C.3     1  UNL1        0.2383
     13 H          20.9608   70.2475    1.8468 H       1  UNL1        0.2105
     14 H          21.5251   72.1912    3.4100 H       1  UNL1        0.2106
     15 O          24.2562   73.9631    2.5906 O.2     1  UNL1       -0.2464
     16 O          28.6795   73.8475    3.8810 O.2     1  UNL1       -0.2670
     17 N          25.4045   71.9357    2.4180 N.ar    1  UNL1       -0.2551
     18 N          26.4596   73.9032    3.2317 N.ar    1  UNL1       -0.2743
     19 C          25.2918   73.3104    2.7335 C.ar    1  UNL1        0.3323
     20 C          26.6100   71.2721    2.6111 C.ar    1  UNL1        0.0869
     21 C          27.7144   71.8505    3.0868 C.ar    1  UNL1        0.0795
     22 C          27.6817   73.2849    3.4404 C.ar    1  UNL1        0.2626
     23 H          26.4062   74.8602    3.4566 H       1  UNL1        0.1734
     24 O          22.2608   72.0072   -4.5224 O.3     1  UNL1       -0.2703
     25 P          21.5880   72.9080   -5.6842 P.3     1  UNL1        0.2208
     26 O          22.5054   72.5874   -6.9788 O.co2   1  UNL1       -0.4371
     27 O          21.4813   74.3672   -5.3479 O.2     1  UNL1       -0.5170
     28 O          20.1784   72.1879   -5.9957 O.3     1  UNL1       -0.2858
     29 O          19.4850   70.0011   -5.4069 O.3     1  UNL1       -0.3226
     30 O          17.3648   70.6452   -8.8938 O.3     1  UNL1       -0.3794
     31 O          20.1579   71.4755   -8.6842 O.3     1  UNL1       -0.3775
     32 O          16.0199   70.7888   -6.3205 O.3     1  UNL1       -0.3792
     33 C          18.0032   71.0109   -7.6704 C.3     1  UNL1        0.1718
     34 C          19.4872   70.6494   -7.7395 C.3     1  UNL1        0.1968
     35 C          17.3214   70.2457   -6.5340 C.3     1  UNL1        0.1723
     36 C          20.1542   70.8125   -6.3731 C.3     1  UNL1        0.2706
     37 C          18.1144   70.3543   -5.2348 C.3     1  UNL1        0.1830
     38 H          17.7816   71.1194   -9.6305 H       1  UNL1        0.2105
     39 H          19.7396   71.3772   -9.5535 H       1  UNL1        0.2106
     40 H          15.5049   70.7259   -7.1401 H       1  UNL1        0.2106
     41 O          16.7578   68.4899   -4.8048 O.co2   1  UNL1       -0.5466
     42 O          17.9780   69.3122   -3.0630 O.co2   1  UNL1       -0.5466
     43 C          17.6333   69.3542   -4.2345 C.2     1  UNL1        0.0799
@<TRIPOS>UNITY_ATOM_ATTR
2 1
charge -1
26 1
charge -1
41 1
charge -1
@<TRIPOS>BOND
     1     1     4    1
     2     1    24    1
     3     1     2    1
     4     1     3    2
     5    25    28    1
     6    25    24    1
     7    25    26    1
     8    25    27    2
     9     6    11    1
    10     6    12    1
    11    29    36    1
    12    29    37    1
    13     7     9    1
    14     7    13    1
    15     8    10    1
    16     8    14    1
    17     4     5    1
    18    28    36    1
    19    30    33    1
    20    30    38    1
    21    31    34    1
    22    31    39    1
    23    32    35    1
    24    32    40    1
    25    41    43   ar
    26    15    19    2
    27    42    43   ar
    28    16    22    2
    29    17    12    1
    30    17    19   ar
    31    17    20   ar
    32    18    19   ar
    33    18    22   ar
    34    18    23    1
    35     9    10    1
    36     9    11    1
    37    10    12    1
    38    11     5    1
    39    33    34    1
    40    33    35    1
    41    34    36    1
    42    35    37    1
    43    37    43    1
    44    20    21   ar
    45    21    22   ar
@<TRIPOS>MOLECULE
*****
 43 45 0 0 0
SMALL
GASTEIGER

@<TRIPOS>ATOM
      1 P          20.7190   70.6932   -3.9939 P.3     1  UNL1        0.2189
      2 O          21.4999   71.6298   -5.0577 O.co2   1  UNL1       -0.4371
      3 O          20.1806   69.4099   -4.5553 O.2     1  UNL1       -0.5170
      4 O          19.6246   71.6849   -3.3331 O.3     1  UNL1       -0.3112
      5 C          19.2640   72.8592   -4.0370 C.3     1  UNL1        0.1811
      6 O          17.4340   73.0027   -5.5889 O.3     1  UNL1       -0.3308
      7 O          15.7085   71.9756   -3.3620 O.3     1  UNL1       -0.3794
      8 O          16.1101   69.7469   -4.8811 O.3     1  UNL1       -0.3779
      9 C          17.0579   71.6413   -3.6873 C.3     1  UNL1        0.1713
     10 C          17.0972   70.7563   -4.9152 C.3     1  UNL1        0.1895
     11 C          17.7484   72.9046   -4.1829 C.3     1  UNL1        0.1764
     12 C          16.8701   71.7588   -6.0338 C.3     1  UNL1        0.2383
     13 H          15.2469   71.1839   -3.0428 H       1  UNL1        0.2105
     14 H          16.2992   69.1342   -4.1525 H       1  UNL1        0.2106
     15 O          15.5141   70.6993   -8.2733 O.2     1  UNL1       -0.2464
     16 O          19.4250   70.2930  -10.6783 O.2     1  UNL1       -0.2670
     17 N          17.5095   71.3678   -7.2582 N.ar    1  UNL1       -0.2551
     18 N          17.4634   70.4970   -9.4686 N.ar    1  UNL1       -0.2743
     19 C          16.7368   70.8464   -8.3228 C.ar    1  UNL1        0.3323
     20 C          18.8855   71.5035   -7.3962 C.ar    1  UNL1        0.0869
     21 C          19.5640   71.1662   -8.4947 C.ar    1  UNL1        0.0795
     22 C          18.8317   70.6129   -9.6527 C.ar    1  UNL1        0.2626
     23 H          16.9473   70.1299  -10.2224 H       1  UNL1        0.1734
     24 O          21.8031   70.5075   -2.8094 O.3     1  UNL1       -0.2703
     25 P          23.0691   71.4154   -2.3774 P.3     1  UNL1        0.2208
     26 O          22.5713   72.9216   -2.6998 O.co2   1  UNL1       -0.4371
     27 O          24.3577   71.0335   -3.0464 O.2     1  UNL1       -0.5170
     28 O          23.1010   71.3332   -0.7666 O.3     1  UNL1       -0.2858
     29 O          22.9074   73.4732    0.2294 O.3     1  UNL1       -0.3226
     30 O          23.6180   71.0763    3.5185 O.3     1  UNL1       -0.3794
     31 O          25.1093   70.6693    1.0396 O.3     1  UNL1       -0.3775
     32 O          20.9392   72.0756    2.9926 O.3     1  UNL1       -0.3792
     33 C          23.1163   71.3914    2.2197 C.3     1  UNL1        0.1718
     34 C          24.2754   71.7910    1.3063 C.3     1  UNL1        0.1968
     35 C          22.1276   72.5507    2.3631 C.3     1  UNL1        0.1723
     36 C          23.7591   72.3540   -0.0185 C.3     1  UNL1        0.2706
     37 C          21.7581   73.1390    1.0044 C.3     1  UNL1        0.1830
     38 H          24.2486   70.3420    3.4523 H       1  UNL1        0.2105
     39 H          25.4402   70.3068    1.8760 H       1  UNL1        0.2106
     40 H          21.1605   71.6984    3.8584 H       1  UNL1        0.2106
     41 O          19.8085   74.2798    1.6364 O.co2   1  UNL1       -0.5466
     42 O          21.5642   75.5423    0.9134 O.co2   1  UNL1       -0.5466
     43 C          21.0683   74.4545    1.1658 C.2     1  UNL1        0.0799
@<TRIPOS>UNITY_ATOM_ATTR
2 1
charge -1
26 1
charge -1
41 1
charge -1
@<TRIPOS>BOND
     1     1     4    1
     2     1    24    1
     3     1     2    1
     4     1     3    2
     5    25    28    1
     6    25    24    1
     7    25    26    1
     8    25    27    2
     9     6    11    1
    10     6    12    1
    11    29    36    1
    12    29    37    1
    13     7     9    1
    14     7    13    1
    15     8    10    1
    16     8    14    1
    17     4     5    1
    18    28    36    1
    19    30    33    1
    20    30    38    1
    21    31    34    1
    22    31    39    1
    23    32    35    1
    24    32    40    1
    25    41    43   ar
    26    15    19    2
    27    42    43   ar
    28    16    22    2
    29    17    12    1
    30    17    19   ar
    31    17    20   ar
    32    18    19   ar
    33    18    22   ar
    34    18    23    1
    35     9    10    1
    36     9    11    1
    37    10    12    1
    38    11     5    1
    39    33    34    1
    40    33    35    1
    41    34    36    1
    42    35    37    1
    43    37    43    1
    44    20    21   ar
    45    21    22   ar
@<TRIPOS>MOLECULE
*****
 43 45 0 0 0
SMALL
GASTEIGER

@<TRIPOS>ATOM
      1 P          21.4073   71.2225   -1.7191 P.3     1  UNL1        0.2189
      2 O          22.8537   70.9560   -2.3942 O.co2   1  UNL1       -0.4371
      3 O          21.2255   70.6259   -0.3543 O.2     1  UNL1       -0.5170
      4 O          20.3558   70.7312   -2.8465 O.3     1  UNL1       -0.3112
      5 C          19.8494   71.6862   -3.7608 C.3     1  UNL1        0.1811
      6 O          17.8365   71.9822   -5.0408 O.3     1  UNL1       -0.3308
      7 O          16.4521   70.4423   -2.8721 O.3     1  UNL1       -0.3794
      8 O          16.7709   68.5658   -4.8249 O.3     1  UNL1       -0.3779
      9 C          17.7656   70.2707   -3.4049 C.3     1  UNL1        0.1713
     10 C          17.6957   69.6320   -4.7759 C.3     1  UNL1        0.1895
     11 C          18.3270   71.6495   -3.7240 C.3     1  UNL1        0.1764
     12 C          17.2833   70.8046   -5.6494 C.3     1  UNL1        0.2383
     13 H          16.0727   69.5745   -2.6605 H       1  UNL1        0.2105
     14 H          17.0784   67.8445   -4.2529 H       1  UNL1        0.2106
     15 O          15.6636   70.4160   -7.9302 O.2     1  UNL1       -0.2464
     16 O          19.3147   70.3878  -10.7432 O.2     1  UNL1       -0.2670
     17 N          17.7845   70.6922   -6.9899 N.ar    1  UNL1       -0.2551
     18 N          17.4837   70.4013   -9.3289 N.ar    1  UNL1       -0.2743
     19 C          16.8859   70.4980   -8.0655 C.ar    1  UNL1        0.3323
     20 C          19.1508   70.7761   -7.2288 C.ar    1  UNL1        0.0869
     21 C          19.7058   70.6821   -8.4388 C.ar    1  UNL1        0.0795
     22 C          18.8369   70.4779   -9.6163 C.ar    1  UNL1        0.2626
     23 H          16.8784   70.2639  -10.0932 H       1  UNL1        0.1734
     24 O          21.2725   72.8324   -1.7736 O.3     1  UNL1       -0.2703
     25 P          22.2047   73.9972   -1.1508 P.3     1  UNL1        0.2208
     26 O          21.1946   75.2568   -1.0346 O.co2   1  UNL1       -0.4371
     27 O          23.4518   74.2753   -1.9390 O.2     1  UNL1       -0.5170
     28 O          22.4645   73.5417    0.3748 O.3     1  UNL1       -0.2858
     29 O          23.7716   74.5517    2.0720 O.3     1  UNL1       -0.3226
     30 O          24.1639   70.5413    2.9835 O.3     1  UNL1       -0.3794
     31 O          24.2887   71.4486    0.2093 O.3     1  UNL1       -0.3775
     32 O          22.4191   72.2357    4.5758 O.3     1  UNL1       -0.3792
     33 C          23.5038   71.7071    2.4904 C.3     1  UNL1        0.1718
     34 C          24.3158   72.3083    1.3429 C.3     1  UNL1        0.1968
     35 C          23.3885   72.7081    3.6422 C.3     1  UNL1        0.1723
     36 C          23.7660   73.6780    0.9424 C.3     1  UNL1        0.2706
     37 C          22.9556   74.0837    3.1436 C.3     1  UNL1        0.1830
     38 H          24.2486   69.8908    2.2687 H       1  UNL1        0.2105
     39 H          24.6360   70.5775    0.4563 H       1  UNL1        0.2106
     40 H          22.6827   71.3606    4.9008 H       1  UNL1        0.2106
     41 O          23.5772   74.5478    5.3571 O.co2   1  UNL1       -0.5466
     42 O          22.9861   76.3198    4.0494 O.co2   1  UNL1       -0.5466
     43 C          23.1621   75.1200    4.1998 C.2     1  UNL1        0.0799
@<TRIPOS>UNITY_ATOM_ATTR
2 1
charge -1
26 1
charge -1
41 1
charge -1
@<TRIPOS>BOND
     1     1     4    1
     2     1    24    1
     3     1     2    1
     4     1     3    2
     5    25    28    1
     6    25    24    1
     7    25    26    1
     8    25    27    2
     9     6    11    1
    10     6    12    1
    11    29    36    1
    12    29    37    1
    13     7     9    1
    14     7    13    1
    15     8    10    1
    16     8    14    1
    17     4     5    1
    18    28    36    1
    19    30    33    1
    20    30    38    1
    21    31    34    1
    22    31    39    1
    23    32    35    1
    24    32    40    1
    25    41    43   ar
    26    15    19    2
    27    42    43   ar
    28    16    22    2
    29    17    12    1
    30    17    19   ar
    31    17    20   ar
    32    18    19   ar
    33    18    22   ar
    34    18    23    1
    35     9    10    1
    36     9    11    1
    37    10    12    1
    38    11     5    1
    39    33    34    1
    40    33    35    1
    41    34    36    1
    42    35    37    1
    43    37    43    1
    44    20    21   ar
    45    21    22   ar
@<TRIPOS>MOLECULE
*****
 43 45 0 0 0
SMALL
GASTEIGER

@<TRIPOS>ATOM
      1 P          21.0304   71.5126   -3.1901 P.3     1  UNL1        0.2189
      2 O          21.3365   72.2449   -4.6004 O.co2   1  UNL1       -0.4371
      3 O          21.4803   70.0834   -3.1075 O.2     1  UNL1       -0.5170
      4 O          19.4496   71.7662   -2.9557 O.3     1  UNL1       -0.3112
      5 C          18.7409   72.5403   -3.9059 C.3     1  UNL1        0.1811
      6 O          16.9311   72.0300   -5.4032 O.3     1  UNL1       -0.3308
      7 O          15.8118   70.3551   -3.1821 O.3     1  UNL1       -0.3794
      8 O          16.9631   68.4944   -4.8094 O.3     1  UNL1       -0.3779
      9 C          17.1733   70.5673   -3.5559 C.3     1  UNL1        0.1713
     10 C          17.4942   69.8030   -4.8229 C.3     1  UNL1        0.1895
     11 C          17.3156   72.0131   -4.0114 C.3     1  UNL1        0.1764
     12 C          16.8608   70.6802   -5.8893 C.3     1  UNL1        0.2383
     13 H          15.6962   69.4378   -2.8874 H       1  UNL1        0.2105
     14 H          17.3986   67.9759   -4.1141 H       1  UNL1        0.2106
     15 O          15.5856   70.6388   -8.4090 O.2     1  UNL1       -0.2464
     16 O          19.6076   70.3698  -10.6439 O.2     1  UNL1       -0.2670
     17 N          17.5506   70.5998   -7.1457 N.ar    1  UNL1       -0.2551
     18 N          17.5900   70.5038   -9.5197 N.ar    1  UNL1       -0.2743
     19 C          16.8157   70.5853   -8.3548 C.ar    1  UNL1        0.3323
     20 C          18.9385   70.5381   -7.1722 C.ar    1  UNL1        0.0869
     21 C          19.6627   70.4608   -8.2905 C.ar    1  UNL1        0.0795
     22 C          18.9718   70.4397   -9.5965 C.ar    1  UNL1        0.2626
     23 H          17.1004   70.4902  -10.3738 H       1  UNL1        0.1734
     24 O          21.7205   72.4992   -2.1116 O.3     1  UNL1       -0.2703
     25 P          21.9204   74.1034   -2.1163 P.3     1  UNL1        0.2208
     26 O          20.5503   74.6488   -1.4487 O.co2   1  UNL1       -0.4371
     27 O          22.2229   74.6824   -3.4680 O.2     1  UNL1       -0.5170
     28 O          23.0538   74.3779   -1.0016 O.3     1  UNL1       -0.2858
     29 O          22.1548   73.7767    1.1054 O.3     1  UNL1       -0.3226
     30 O          25.9487   75.0430    2.1405 O.3     1  UNL1       -0.3794
     31 O          24.3791   76.5237    0.1711 O.3     1  UNL1       -0.3775
     32 O          25.3245   72.2045    2.0768 O.3     1  UNL1       -0.3792
     33 C          24.9548   74.4553    1.3010 C.3     1  UNL1        0.1718
     34 C          23.8664   75.4855    0.9981 C.3     1  UNL1        0.1968
     35 C          24.3603   73.2549    2.0409 C.3     1  UNL1        0.1723
     36 C          22.6749   74.8323    0.2964 C.3     1  UNL1        0.2706
     37 C          23.1030   72.7394    1.3466 C.3     1  UNL1        0.1830
     38 H          26.3405   75.8083    1.6910 H       1  UNL1        0.2105
     39 H          25.1357   76.9424    0.6102 H       1  UNL1        0.2106
     40 H          26.1298   72.5196    2.5161 H       1  UNL1        0.2106
     41 O          21.9687   70.6963    1.5475 O.co2   1  UNL1       -0.5466
     42 O          22.1187   71.9910    3.4184 O.co2   1  UNL1       -0.5466
     43 C          22.3539   71.8000    2.2347 C.2     1  UNL1        0.0799
@<TRIPOS>UNITY_ATOM_ATTR
2 1
charge -1
26 1
charge -1
41 1
charge -1
@<TRIPOS>BOND
     1     1     4    1
     2     1    24    1
     3     1     2    1
     4     1     3    2
     5    25    28    1
     6    25    24    1
     7    25    26    1
     8    25    27    2
     9     6    11    1
    10     6    12    1
    11    29    36    1
    12    29    37    1
    13     7     9    1
    14     7    13    1
    15     8    10    1
    16     8    14    1
    17     4     5    1
    18    28    36    1
    19    30    33    1
    20    30    38    1
    21    31    34    1
    22    31    39    1
    23    32    35    1
    24    32    40    1
    25    41    43   ar
    26    15    19    2
    27    42    43   ar
    28    16    22    2
    29    17    12    1
    30    17    19   ar
    31    17    20   ar
    32    18    19   ar
    33    18    22   ar
    34    18    23    1
    35     9    10    1
    36     9    11    1
    37    10    12    1
    38    11     5    1
    39    33    34    1
    40    33    35    1
    41    34    36    1
    42    35    37    1
    43    37    43    1
    44    20    21   ar
    45    21    22   ar
@<TRIPOS>MOLECULE
*****
 43 45 0 0 0
SMALL
GASTEIGER

@<TRIPOS>ATOM
      1 P          22.8057   72.2295   -1.2883 P.3     1  UNL1        0.2189
      2 O          23.4574   73.7101   -1.3316 O.co2   1  UNL1       -0.4371
      3 O          23.7938   71.1009   -1.3295 O.2     1  UNL1       -0.5170
      4 O          21.7132   72.2508   -2.4815 O.3     1  UNL1       -0.3112
      5 C          21.8956   73.1628   -3.5490 C.3     1  UNL1        0.1811
      6 O          21.7407   71.1349   -4.8303 O.3     1  UNL1       -0.3308
      7 O          23.0777   72.6516   -7.0447 O.3     1  UNL1       -0.3794
      8 O          20.4569   72.6850   -7.7973 O.3     1  UNL1       -0.3779
      9 C          22.1274   73.1084   -6.0820 C.3     1  UNL1        0.1713
     10 C          20.7472   72.5851   -6.4188 C.3     1  UNL1        0.1895
     11 C          22.4209   72.4070   -4.7628 C.3     1  UNL1        0.1764
     12 C          20.8307   71.1452   -5.9416 C.3     1  UNL1        0.2383
     13 H          22.9102   73.0861   -7.8961 H       1  UNL1        0.2105
     14 H          20.4141   73.6206   -8.0517 H       1  UNL1        0.2106
     15 O          18.7306   70.4115   -7.6817 O.2     1  UNL1       -0.2464
     16 O          15.9982   69.2063   -4.1710 O.2     1  UNL1       -0.2670
     17 N          19.5598   70.6367   -5.5091 N.ar    1  UNL1       -0.2551
     18 N          17.3714   69.8129   -5.9315 N.ar    1  UNL1       -0.2743
     19 C          18.5728   70.2980   -6.4647 C.ar    1  UNL1        0.3323
     20 C          19.3019   70.4765   -4.1530 C.ar    1  UNL1        0.0869
     21 C          18.1519   70.0127   -3.6599 C.ar    1  UNL1        0.0795
     22 C          17.0680   69.6366   -4.5911 C.ar    1  UNL1        0.2626
     23 H          16.6683   69.5723   -6.5773 H       1  UNL1        0.1734
     24 O          21.8904   72.2747    0.0433 O.3     1  UNL1       -0.2703
     25 P          22.2111   71.8400    1.5670 P.3     1  UNL1        0.2208
     26 O          22.9069   70.3881    1.3988 O.co2   1  UNL1       -0.4371
     27 O          21.0157   71.8513    2.4752 O.2     1  UNL1       -0.5170
     28 O          23.4107   72.8155    2.0271 O.3     1  UNL1       -0.2858
     29 O          22.6429   74.4662    3.5420 O.3     1  UNL1       -0.3226
     30 O          26.5642   75.6253    2.9521 O.3     1  UNL1       -0.3794
     31 O          24.9296   74.7318    0.7017 O.3     1  UNL1       -0.3775
     32 O          25.7912   74.2947    5.4185 O.3     1  UNL1       -0.3792
     33 C          25.4809   74.7023    3.0642 C.3     1  UNL1        0.1718
     34 C          24.4276   75.0180    2.0020 C.3     1  UNL1        0.1968
     35 C          24.8826   74.8433    4.4656 C.3     1  UNL1        0.1723
     36 C          23.1545   74.2033    2.2348 C.3     1  UNL1        0.2706
     37 C          23.5516   74.1056    4.5799 C.3     1  UNL1        0.1830
     38 H          26.9602   75.5537    2.0693 H       1  UNL1        0.2105
     39 H          25.7376   75.2453    0.5473 H       1  UNL1        0.2106
     40 H          26.6425   74.7555    5.3560 H       1  UNL1        0.2106
     41 O          22.3148   75.7631    5.6865 O.co2   1  UNL1       -0.5466
     42 O          22.6981   73.8213    6.8186 O.co2   1  UNL1       -0.5466
     43 C          22.8240   74.5133    5.8195 C.2     1  UNL1        0.0799
@<TRIPOS>UNITY_ATOM_ATTR
2 1
charge -1
26 1
charge -1
41 1
charge -1
@<TRIPOS>BOND
     1     1     4    1
     2     1    24    1
     3     1     2    1
     4     1     3    2
     5    25    28    1
     6    25    24    1
     7    25    26    1
     8    25    27    2
     9     6    11    1
    10     6    12    1
    11    29    36    1
    12    29    37    1
    13     7     9    1
    14     7    13    1
    15     8    10    1
    16     8    14    1
    17     4     5    1
    18    28    36    1
    19    30    33    1
    20    30    38    1
    21    31    34    1
    22    31    39    1
    23    32    35    1
    24    32    40    1
    25    41    43   ar
    26    15    19    2
    27    42    43   ar
    28    16    22    2
    29    17    12    1
    30    17    19   ar
    31    17    20   ar
    32    18    19   ar
    33    18    22   ar
    34    18    23    1
    35     9    10    1
    36     9    11    1
    37    10    12    1
    38    11     5    1
    39    33    34    1
    40    33    35    1
    41    34    36    1
    42    35    37    1
    43    37    43    1
    44    20    21   ar
    45    21    22   ar
@<TRIPOS>MOLECULE
*****
 43 45 0 0 0
SMALL
GASTEIGER

@<TRIPOS>ATOM
      1 P          23.4630   72.3256   -3.5335 P.3     1  UNL1        0.2189
      2 O          24.1194   70.8715   -3.2623 O.co2   1  UNL1       -0.4371
      3 O          24.4274   73.3809   -3.9899 O.2     1  UNL1       -0.5170
      4 O          22.6609   72.6508   -2.1665 O.3     1  UNL1       -0.3112
      5 C          23.3964   72.7676   -0.9624 C.3     1  UNL1        0.1811
      6 O          24.4473   71.2915    0.6171 O.3     1  UNL1       -0.3308
      7 O          21.7081   70.1790    1.1178 O.3     1  UNL1       -0.3794
      8 O          22.0757   71.8393    3.2495 O.3     1  UNL1       -0.3779
      9 C          22.1004   71.5232    0.8388 C.3     1  UNL1        0.1713
     10 C          22.7635   72.1383    2.0529 C.3     1  UNL1        0.1895
     11 C          23.2465   71.4798   -0.1626 C.3     1  UNL1        0.1764
     12 C          24.1491   71.5173    2.0040 C.3     1  UNL1        0.2383
     13 H          20.9768   70.1810    1.7556 H       1  UNL1        0.2105
     14 H          21.1999   72.2571    3.2321 H       1  UNL1        0.2106
     15 O          26.8496   70.7788    2.3765 O.2     1  UNL1       -0.2464
     16 O          27.9182   74.8917    4.1616 O.2     1  UNL1       -0.2670
     17 N          25.1544   72.3757    2.5639 N.ar    1  UNL1       -0.2551
     18 N          27.3790   72.8276    3.2662 N.ar    1  UNL1       -0.2743
     19 C          26.4818   71.9074    2.7082 C.ar    1  UNL1        0.3323
     20 C          24.8224   73.6651    2.9617 C.ar    1  UNL1        0.0869
     21 C          25.6886   74.5307    3.4918 C.ar    1  UNL1        0.0795
     22 C          27.0958   74.1200    3.6775 C.ar    1  UNL1        0.2626
     23 H          28.3087   72.5237    3.3784 H       1  UNL1        0.1734
     24 O          22.2769   71.9986   -4.5818 O.3     1  UNL1       -0.2703
     25 P          21.5759   72.9178   -5.7120 P.3     1  UNL1        0.2208
     26 O          22.4791   72.6409   -7.0265 O.co2   1  UNL1       -0.4371
     27 O          21.4547   74.3670   -5.3390 O.2     1  UNL1       -0.5170
     28 O          20.1717   72.1865   -6.0213 O.3     1  UNL1       -0.2858
     29 O          19.4875   69.9898   -5.4594 O.3     1  UNL1       -0.3226
     30 O          17.3900   70.6549   -8.9560 O.3     1  UNL1       -0.3794
     31 O          20.1761   71.5004   -8.7168 O.3     1  UNL1       -0.3775
     32 O          16.0246   70.7650   -6.3919 O.3     1  UNL1       -0.3792
     33 C          18.0168   71.0125   -7.7242 C.3     1  UNL1        0.1718
     34 C          19.5034   70.6609   -7.7854 C.3     1  UNL1        0.1968
     35 C          17.3310   70.2320   -6.6006 C.3     1  UNL1        0.1723
     36 C          20.1590   70.8147   -6.4123 C.3     1  UNL1        0.2706
     37 C          18.1134   70.3328   -5.2944 C.3     1  UNL1        0.1830
     38 H          17.8094   71.1389   -9.6848 H       1  UNL1        0.2105
     39 H          19.7651   71.4080   -9.5902 H       1  UNL1        0.2106
     40 H          15.5162   70.7069   -7.2160 H       1  UNL1        0.2106
     41 O          16.3570   68.9486   -4.5869 O.co2   1  UNL1       -0.5466
     42 O          18.2879   68.8798   -3.3761 O.co2   1  UNL1       -0.5466
     43 C          17.6310   69.3200   -4.3076 C.2     1  UNL1        0.0799
@<TRIPOS>UNITY_ATOM_ATTR
2 1
charge -1
26 1
charge -1
41 1
charge -1
@<TRIPOS>BOND
     1     1     4    1
     2     1    24    1
     3     1     2    1
     4     1     3    2
     5    25    28    1
     6    25    24    1
     7    25    26    1
     8    25    27    2
     9     6    11    1
    10     6    12    1
    11    29    36    1
    12    29    37    1
    13     7     9    1
    14     7    13    1
    15     8    10    1
    16     8    14    1
    17     4     5    1
    18    28    36    1
    19    30    33    1
    20    30    38    1
    21    31    34    1
    22    31    39    1
    23    32    35    1
    24    32    40    1
    25    41    43   ar
    26    15    19    2
    27    42    43   ar
    28    16    22    2
    29    17    12    1
    30    17    19   ar
    31    17    20   ar
    32    18    19   ar
    33    18    22   ar
    34    18    23    1
    35     9    10    1
    36     9    11    1
    37    10    12    1
    38    11     5    1
    39    33    34    1
    40    33    35    1
    41    34    36    1
    42    35    37    1
    43    37    43    1
    44    20    21   ar
    45    21    22   ar
@<TRIPOS>MOLECULE
*****
 43 45 0 0 0
SMALL
GASTEIGER

@<TRIPOS>ATOM
      1 P          23.0656   70.9386    1.0238 P.3     1  UNL1        0.2189
      2 O          24.4335   70.1942    1.4639 O.co2   1  UNL1       -0.4371
      3 O          21.8279   70.0951    1.1143 O.2     1  UNL1       -0.5170
      4 O          23.4028   71.5365   -0.4414 O.3     1  UNL1       -0.3112
      5 C          22.3278   71.8459   -1.3092 C.3     1  UNL1        0.1811
      6 O          21.8350   70.3799   -3.1492 O.3     1  UNL1       -0.3308
      7 O          23.3589   72.3162   -4.8580 O.3     1  UNL1       -0.3794
      8 O          20.7645   72.9665   -5.3892 O.3     1  UNL1       -0.3779
      9 C          22.5079   72.5727   -3.7406 C.3     1  UNL1        0.1713
     10 C          21.0573   72.3897   -4.1338 C.3     1  UNL1        0.1895
     11 C          22.7081   71.4512   -2.7305 C.3     1  UNL1        0.1764
     12 C          20.9204   70.8767   -4.1392 C.3     1  UNL1        0.2383
     13 H          23.2485   73.0197   -5.5172 H       1  UNL1        0.2105
     14 H          20.8658   73.9302   -5.3338 H       1  UNL1        0.2106
     15 O          19.9529   70.5844   -1.5020 O.2     1  UNL1       -0.2464
     16 O          15.8074   69.2152   -2.9799 O.2     1  UNL1       -0.2670
     17 N          19.5923   70.4454   -3.8061 N.ar    1  UNL1       -0.2551
     18 N          17.8894   69.9018   -2.2406 N.ar    1  UNL1       -0.2743
     19 C          19.2065   70.3315   -2.4496 C.ar    1  UNL1        0.3323
     20 C          18.6876   70.1424   -4.8165 C.ar    1  UNL1        0.0869
     21 C          17.4355   69.7341   -4.6017 C.ar    1  UNL1        0.0795
     22 C          16.9533   69.5880   -3.2126 C.ar    1  UNL1        0.2626
     23 H          17.5985   69.8129   -1.3042 H       1  UNL1        0.1734
     24 O          23.0523   72.2564    1.9597 O.3     1  UNL1       -0.2703
     25 P          24.1085   73.4729    2.0950 P.3     1  UNL1        0.2208
     26 O          23.6867   74.4649    0.8873 O.co2   1  UNL1       -0.4371
     27 O          25.5473   73.0450    2.0698 O.2     1  UNL1       -0.5170
     28 O          23.6652   74.2526    3.4359 O.3     1  UNL1       -0.2858
     29 O          24.7420   74.5091    5.5297 O.3     1  UNL1       -0.3226
     30 O          20.7668   74.3478    6.6430 O.3     1  UNL1       -0.3794
     31 O          21.8061   72.5402    4.5968 O.3     1  UNL1       -0.3775
     32 O          22.1752   76.8908    6.6259 O.3     1  UNL1       -0.3792
     33 C          21.8696   74.6521    5.7891 C.3     1  UNL1        0.1718
     34 C          22.6114   73.3637    5.4323 C.3     1  UNL1        0.1968
     35 C          22.7978   75.6104    6.5389 C.3     1  UNL1        0.1723
     36 C          23.9251   73.6704    4.7120 C.3     1  UNL1        0.2706
     37 C          24.1353   75.7662    5.8211 C.3     1  UNL1        0.1830
     38 H          20.1632   73.7399    6.1876 H       1  UNL1        0.2105
     39 H          20.9707   72.3419    5.0475 H       1  UNL1        0.2106
     40 H          21.3227   76.8056    7.0807 H       1  UNL1        0.2106
     41 O          24.7901   76.2896    8.0117 O.co2   1  UNL1       -0.5466
     42 O          26.1426   77.0076    6.3222 O.co2   1  UNL1       -0.5466
     43 C          25.1400   76.4258    6.7087 C.2     1  UNL1        0.0799
@<TRIPOS>UNITY_ATOM_ATTR
2 1
charge -1
26 1
charge -1
41 1
charge -1
@<TRIPOS>BOND
     1     1     4    1
     2     1    24    1
     3     1     2    1
     4     1     3    2
     5    25    28    1
     6    25    24    1
     7    25    26    1
     8    25    27    2
     9     6    11    1
    10     6    12    1
    11    29    36    1
    12    29    37    1
    13     7     9    1
    14     7    13    1
    15     8    10    1
    16     8    14    1
    17     4     5    1
    18    28    36    1
    19    30    33    1
    20    30    38    1
    21    31    34    1
    22    31    39    1
    23    32    35    1
    24    32    40    1
    25    41    43   ar
    26    15    19    2
    27    42    43   ar
    28    16    22    2
    29    17    12    1
    30    17    19   ar
    31    17    20   ar
    32    18    19   ar
    33    18    22   ar
    34    18    23    1
    35     9    10    1
    36     9    11    1
    37    10    12    1
    38    11     5    1
    39    33    34    1
    40    33    35    1
    41    34    36    1
    42    35    37    1
    43    37    43    1
    44    20    21   ar
    45    21    22   ar
@<TRIPOS>MOLECULE
*****
 43 45 0 0 0
SMALL
GASTEIGER

@<TRIPOS>ATOM
      1 P          21.8533   72.4503   -5.6755 P.3     1  UNL1        0.2189
      2 O          21.1966   73.8772   -5.2864 O.co2   1  UNL1       -0.4371
      3 O          23.0779   72.5308   -6.5390 O.2     1  UNL1       -0.5170
      4 O          20.6157   71.6072   -6.2884 O.3     1  UNL1       -0.3112
      5 C          20.1211   71.9644   -7.5660 C.3     1  UNL1        0.1811
      6 O          18.9017   69.9354   -7.1489 O.3     1  UNL1       -0.3308
      7 O          18.1332   70.0213  -10.0461 O.3     1  UNL1       -0.3794
      8 O          15.8990   70.9765   -8.8084 O.3     1  UNL1       -0.3779
      9 C          18.3067   71.0983   -9.1249 C.3     1  UNL1        0.1713
     10 C          17.1410   71.1561   -8.1605 C.3     1  UNL1        0.1895
     11 C          19.4658   70.7456   -8.2028 C.3     1  UNL1        0.1764
     12 C          17.4690   70.0248   -7.2011 C.3     1  UNL1        0.2383
     13 H          17.3978   70.2237  -10.6459 H       1  UNL1        0.2105
     14 H          15.7361   71.7224   -9.4077 H       1  UNL1        0.2106
     15 O          16.3039   68.0497   -5.5525 O.2     1  UNL1       -0.2464
     16 O          15.5801   71.0637   -2.1414 O.2     1  UNL1       -0.2670
     17 N          16.9677   70.2660   -5.8777 N.ar    1  UNL1       -0.2551
     18 N          15.9436   69.5529   -3.8556 N.ar    1  UNL1       -0.2743
     19 C          16.4010   69.2045   -5.1332 C.ar    1  UNL1        0.3323
     20 C          17.0414   71.5409   -5.3297 C.ar    1  UNL1        0.0869
     21 C          16.6012   71.8576   -4.1105 C.ar    1  UNL1        0.0795
     22 C          15.9945   70.8065   -3.2676 C.ar    1  UNL1        0.2626
     23 H          15.5431   68.8310   -3.3191 H       1  UNL1        0.1734
     24 O          22.0892   71.7546   -4.2356 O.3     1  UNL1       -0.2703
     25 P          23.2812   71.9254   -3.1569 P.3     1  UNL1        0.2208
     26 O          23.9640   73.3308   -3.5796 O.co2   1  UNL1       -0.4371
     27 O          24.2339   70.7664   -3.1032 O.2     1  UNL1       -0.5170
     28 O          22.5306   72.2401   -1.7640 O.3     1  UNL1       -0.2858
     29 O          23.2001   70.7756   -0.0273 O.3     1  UNL1       -0.3226
     30 O          20.1218   72.8620    1.7724 O.3     1  UNL1       -0.3794
     31 O          19.8745   71.9491   -0.9917 O.3     1  UNL1       -0.3775
     32 O          22.8841   73.4671    2.4462 O.3     1  UNL1       -0.3792
     33 C          21.2264   72.6744    0.8878 C.3     1  UNL1        0.1718
     34 C          20.9075   71.5502   -0.0981 C.3     1  UNL1        0.1968
     35 C          22.4510   72.3117    1.7307 C.3     1  UNL1        0.1723
     36 C          22.1460   71.1655   -0.9085 C.3     1  UNL1        0.2706
     37 C          23.6017   71.8185    0.8582 C.3     1  UNL1        0.1830
     38 H          19.3318   73.0934    1.2589 H       1  UNL1        0.2105
     39 H          19.0856   72.1949   -0.4842 H       1  UNL1        0.2106
     40 H          22.1608   73.7911    3.0053 H       1  UNL1        0.2106
     41 O          25.4734   72.0937    2.2448 O.co2   1  UNL1       -0.5466
     42 O          24.7715   69.9593    1.8564 O.co2   1  UNL1       -0.5466
     43 C          24.6560   71.1643    1.6906 C.2     1  UNL1        0.0799
@<TRIPOS>UNITY_ATOM_ATTR
2 1
charge -1
26 1
charge -1
41 1
charge -1
@<TRIPOS>BOND
     1     1     4    1
     2     1    24    1
     3     1     2    1
     4     1     3    2
     5    25    28    1
     6    25    24    1
     7    25    26    1
     8    25    27    2
     9     6    11    1
    10     6    12    1
    11    29    36    1
    12    29    37    1
    13     7     9    1
    14     7    13    1
    15     8    10    1
    16     8    14    1
    17     4     5    1
    18    28    36    1
    19    30    33    1
    20    30    38    1
    21    31    34    1
    22    31    39    1
    23    32    35    1
    24    32    40    1
    25    41    43   ar
    26    15    19    2
    27    42    43   ar
    28    16    22    2
    29    17    12    1
    30    17    19   ar
    31    17    20   ar
    32    18    19   ar
    33    18    22   ar
    34    18    23    1
    35     9    10    1
    36     9    11    1
    37    10    12    1
    38    11     5    1
    39    33    34    1
    40    33    35    1
    41    34    36    1
    42    35    37    1
    43    37    43    1
    44    20    21   ar
    45    21    22   ar
@<TRIPOS>MOLECULE
*****
 43 45 0 0 0
SMALL
GASTEIGER

@<TRIPOS>ATOM
      1 P          21.7058   72.3495   -5.6329 P.3     1  UNL1        0.2189
      2 O          21.3572   73.8733   -5.2141 O.co2   1  UNL1       -0.4371
      3 O          22.6716   72.2110   -6.7731 O.2     1  UNL1       -0.5170
      4 O          20.2560   71.6657   -5.8532 O.3     1  UNL1       -0.3112
      5 C          20.0274   70.3768   -5.3139 C.3     1  UNL1        0.1811
      6 O          18.1636   71.5884   -4.3995 O.3     1  UNL1       -0.3308
      7 O          17.7626   69.2347   -2.5854 O.3     1  UNL1       -0.3794
      8 O          15.8652   68.8387   -4.5035 O.3     1  UNL1       -0.3779
      9 C          18.1935   69.2636   -3.9463 C.3     1  UNL1        0.1713
     10 C          17.0241   69.5628   -4.8602 C.3     1  UNL1        0.1895
     11 C          19.0691   70.4948   -4.1357 C.3     1  UNL1        0.1764
     12 C          16.8565   71.0616   -4.6774 C.3     1  UNL1        0.2383
     13 H          17.2014   68.4564   -2.4401 H       1  UNL1        0.2105
     14 H          16.0224   67.8904   -4.6378 H       1  UNL1        0.2106
     15 O          17.1125   70.0398   -7.2979 O.2     1  UNL1       -0.2464
     16 O          14.8164   73.6031   -9.1075 O.2     1  UNL1       -0.2670
     17 N          16.3350   71.7019   -5.8517 N.ar    1  UNL1       -0.2551
     18 N          15.9695   71.8160   -8.1968 N.ar    1  UNL1       -0.2743
     19 C          16.5182   71.1050   -7.1214 C.ar    1  UNL1        0.3323
     20 C          15.6500   72.9057   -5.7390 C.ar    1  UNL1        0.0869
     21 C          15.1325   73.5715   -6.7732 C.ar    1  UNL1        0.0795
     22 C          15.2807   73.0165   -8.1346 C.ar    1  UNL1        0.2626
     23 H          16.0861   71.4212   -9.0911 H       1  UNL1        0.1734
     24 O          22.2079   71.6966   -4.2421 O.3     1  UNL1       -0.2703
     25 P          23.5155   71.9964   -3.3399 P.3     1  UNL1        0.2208
     26 O          24.3765   73.0107   -4.2620 O.co2   1  UNL1       -0.4371
     27 O          24.2620   70.7668   -2.9099 O.2     1  UNL1       -0.5170
     28 O          22.9743   72.9100   -2.1254 O.3     1  UNL1       -0.2858
     29 O          21.4237   71.9921   -0.5884 O.3     1  UNL1       -0.3226
     30 O          21.0364   76.0398    0.1426 O.3     1  UNL1       -0.3794
     31 O          21.2527   75.0434   -2.5951 O.3     1  UNL1       -0.3775
     32 O          22.5025   74.3547    2.0033 O.3     1  UNL1       -0.3792
     33 C          21.7202   74.8411   -0.2230 C.3     1  UNL1        0.1718
     34 C          21.0494   74.2233   -1.4502 C.3     1  UNL1        0.1968
     35 C          21.6514   73.8768    0.9632 C.3     1  UNL1        0.1723
     36 C          21.6055   72.8270   -1.7327 C.3     1  UNL1        0.2706
     37 C          22.1044   72.4743    0.5680 C.3     1  UNL1        0.1830
     38 H          21.0670   76.6679   -0.5962 H       1  UNL1        0.2105
     39 H          20.9025   75.9311   -2.4227 H       1  UNL1        0.2106
     40 H          22.2249   75.2468    2.2639 H       1  UNL1        0.2106
     41 O          21.5807   70.2452    1.0765 O.co2   1  UNL1       -0.5466
     42 O          21.5753   71.7348    2.8028 O.co2   1  UNL1       -0.5466
     43 C          21.7283   71.4798    1.6177 C.2     1  UNL1        0.0799
@<TRIPOS>UNITY_ATOM_ATTR
2 1
charge -1
26 1
charge -1
41 1
charge -1
@<TRIPOS>BOND
     1     1     4    1
     2     1    24    1
     3     1     2    1
     4     1     3    2
     5    25    28    1
     6    25    24    1
     7    25    26    1
     8    25    27    2
     9     6    11    1
    10     6    12    1
    11    29    36    1
    12    29    37    1
    13     7     9    1
    14     7    13    1
    15     8    10    1
    16     8    14    1
    17     4     5    1
    18    28    36    1
    19    30    33    1
    20    30    38    1
    21    31    34    1
    22    31    39    1
    23    32    35    1
    24    32    40    1
    25    41    43   ar
    26    15    19    2
    27    42    43   ar
    28    16    22    2
    29    17    12    1
    30    17    19   ar
    31    17    20   ar
    32    18    19   ar
    33    18    22   ar
    34    18    23    1
    35     9    10    1
    36     9    11    1
    37    10    12    1
    38    11     5    1
    39    33    34    1
    40    33    35    1
    41    34    36    1
    42    35    37    1
    43    37    43    1
    44    20    21   ar
    45    21    22   ar
