@<TRIPOS>MOLECULE
GDU
 43 45 0 0 0
SMALL
GASTEIGER

@<TRIPOS>ATOM
      1 P          22.0919   70.8990   -2.4407 P.3     1  UNL1        0.2189
      2 O          21.5187   69.6080   -2.0001 O.2     1  UNL1       -0.5170
      3 O          23.5232   70.6425   -3.1324 O.3     1  UNL1       -0.4371
      4 O          21.1006   71.5931   -3.5002 O.3     1  UNL1       -0.3112
      5 C          20.1193   72.3044   -2.7442 C.3     1  UNL1        0.1811
      6 C          17.8917   71.3498   -5.4001 C.3     1  UNL1        0.2383
      7 C          17.9867   70.0909   -4.5006 C.3     1  UNL1        0.1895
      8 O          16.7699   69.3419   -4.5416 O.3     1  UNL1       -0.3779
      9 C          18.2076   70.7109   -3.0963 C.3     1  UNL1        0.1713
     10 C          18.7449   72.1237   -3.3913 C.3     1  UNL1        0.1764
     11 O          18.8566   72.2526   -4.8192 O.3     1  UNL1       -0.3308
     12 O          16.9730   70.7775   -2.3798 O.3     1  UNL1       -0.3794
     13 H          16.8946   68.5757   -3.9643 H       1  UNL1        0.2106
     14 H          16.6587   69.8689   -2.2785 H       1  UNL1        0.2105
     15 N          18.2530   71.0278   -6.7816 N.ar    1  UNL1       -0.2551
     16 C          17.2917   70.7029   -7.6640 C.ar    1  UNL1        0.3323
     17 N          17.5968   70.4061   -8.9409 N.ar    1  UNL1       -0.2743
     18 C          18.8784   70.4203   -9.3548 C.ar    1  UNL1        0.2626
     19 C          19.9022   70.7550   -8.4349 C.ar    1  UNL1        0.0795
     20 C          19.5681   71.0527   -7.1613 C.ar    1  UNL1        0.0869
     21 O          16.1310   70.6864   -7.3054 O.2     1  UNL1       -0.2464
     22 O          19.1560   70.1471  -10.5093 O.2     1  UNL1       -0.2670
     23 H          16.8897   70.1780   -9.5653 H       1  UNL1        0.1734
     24 O          22.2788   71.8650   -1.1662 O.3     1  UNL1       -0.2703
     25 P          22.4469   70.9128    0.1203 P.3     1  UNL1        0.2208
     26 O          21.1833   70.1816    0.3610 O.2     1  UNL1       -0.5170
     27 O          23.6347   69.8578   -0.1447 O.3     1  UNL1       -0.4371
     28 O          22.8038   71.8082    1.4091 O.3     1  UNL1       -0.2858
     29 C          22.0063   72.9902    1.3270 C.3     1  UNL1        0.2704
     30 C          22.9134   74.2023    1.1098 C.3     1  UNL1        0.1967
     31 C          23.9044   74.2983    2.2739 C.3     1  UNL1        0.1715
     32 C          23.1169   74.3002    3.5890 C.3     1  UNL1        0.1694
     33 C          22.1951   73.0785    3.6189 C.3     1  UNL1        0.1761
     34 O          23.6282   74.0514   -0.1180 O.3     1  UNL1       -0.3775
     35 O          24.6604   75.5060    2.1625 O.3     1  UNL1       -0.3794
     36 O          22.3385   75.4944    3.6781 O.3     1  UNL1       -0.3794
     37 O          21.2682   73.1484    2.5364 O.3     1  UNL1       -0.3258
     38 H          22.9664   73.9879   -0.8200 H       1  UNL1        0.2106
     39 H          25.1280   75.4666    1.3187 H       1  UNL1        0.2105
     40 H          22.9581   76.2351    3.6498 H       1  UNL1        0.2105
     41 C          21.4289   73.0522    4.9434 C.3     1  UNL1        0.1693
     42 O          22.3240   73.3492    6.0165 O.3     1  UNL1       -0.3794
     43 H          21.8031   73.3233    6.8309 H       1  UNL1        0.2105
@<TRIPOS>BOND
     1    15    16   ar
     2    15    20   ar
     3    15     6    1
     4    16    17   ar
     5    16    21    2
     6    17    18   ar
     7    17    23    1
     8    18    19   ar
     9    18    22    2
    10    19    20   ar
    11     6     7    1
    12     6    11    1
    13     7     8    1
    14     7     9    1
    15     8    13    1
    16     9    10    1
    17     9    12    1
    18    10    11    1
    19    10     5    1
    20    12    14    1
    21     5     4    1
    22     4     1    1
    23     1     2    2
    24     1     3    1
    25     1    24    1
    26    24    25    1
    27    25    26    2
    28    25    27    1
    29    25    28    1
    30    28    29    1
    31    29    30    1
    32    29    37    1
    33    30    31    1
    34    30    34    1
    35    31    32    1
    36    31    35    1
    37    32    33    1
    38    32    36    1
    39    33    41    1
    40    33    37    1
    41    41    42    1
    42    34    38    1
    43    35    39    1
    44    36    40    1
    45    42    43    1
@<TRIPOS>MOLECULE
GDU
 43 45 0 0 0
SMALL
GASTEIGER

@<TRIPOS>ATOM
      1 P          22.4400   71.7683   -3.1973 P.3     1  UNL1        0.2189
      2 O          22.7990   72.7091   -2.1131 O.2     1  UNL1       -0.5170
      3 O          23.5006   70.5570   -3.2297 O.3     1  UNL1       -0.4371
      4 O          20.9651   71.1832   -2.9344 O.3     1  UNL1       -0.3112
      5 C          20.1393   72.2908   -2.5713 C.3     1  UNL1        0.1811
      6 C          17.9188   71.4166   -5.2606 C.3     1  UNL1        0.2383
      7 C          17.9823   70.1432   -4.3789 C.3     1  UNL1        0.1895
      8 O          16.7522   69.4177   -4.4417 O.3     1  UNL1       -0.3779
      9 C          18.2017   70.7386   -2.9638 C.3     1  UNL1        0.1713
     10 C          18.7678   72.1452   -3.2331 C.3     1  UNL1        0.1764
     11 O          18.8949   72.2927   -4.6580 O.3     1  UNL1       -0.3308
     12 O          16.9621   70.8178   -2.2574 O.3     1  UNL1       -0.3794
     13 H          16.8574   68.6411   -3.8746 H       1  UNL1        0.2106
     14 H          16.6300   69.9138   -2.1722 H       1  UNL1        0.2105
     15 N          18.2868   71.1080   -6.6435 N.ar    1  UNL1       -0.2551
     16 C          17.3285   70.8044   -7.5366 C.ar    1  UNL1        0.3323
     17 N          17.6397   70.5203   -8.8150 N.ar    1  UNL1       -0.2743
     18 C          18.9244   70.5260   -9.2195 C.ar    1  UNL1        0.2626
     19 C          19.9449   70.8383   -8.2883 C.ar    1  UNL1        0.0795
     20 C          19.6047   71.1236   -7.0134 C.ar    1  UNL1        0.0869
     21 O          16.1651   70.7958   -7.1866 O.2     1  UNL1       -0.2464
     22 O          19.2075   70.2642  -10.3753 O.2     1  UNL1       -0.2670
     23 H          16.9348   70.3076   -9.4473 H       1  UNL1        0.1734
     24 O          22.4680   72.5421   -4.6090 O.3     1  UNL1       -0.2703
     25 P          23.1751   73.9640   -4.3479 P.3     1  UNL1        0.2208
     26 O          22.3728   74.7431   -3.3793 O.2     1  UNL1       -0.5170
     27 O          24.6527   73.7269   -3.7522 O.3     1  UNL1       -0.4371
     28 O          23.2805   74.7748   -5.7341 O.3     1  UNL1       -0.2858
     29 C          22.0252   74.6253   -6.3987 C.3     1  UNL1        0.2704
     30 C          22.2527   74.0272   -7.7879 C.3     1  UNL1        0.1967
     31 C          23.1791   74.9521   -8.5833 C.3     1  UNL1        0.1715
     32 C          22.5881   76.3664   -8.5709 C.3     1  UNL1        0.1694
     33 C          22.3369   76.7881   -7.1210 C.3     1  UNL1        0.1761
     34 O          22.8549   72.7378   -7.6611 O.3     1  UNL1       -0.3775
     35 O          23.2835   74.4846   -9.9298 O.3     1  UNL1       -0.3794
     36 O          21.3579   76.3766   -9.2965 O.3     1  UNL1       -0.3794
     37 O          21.3975   75.8999   -6.5172 O.3     1  UNL1       -0.3258
     38 H          22.2420   72.1928   -7.1489 H       1  UNL1        0.2106
     39 H          23.6469   73.5910   -9.8884 H       1  UNL1        0.2105
     40 H          21.5631   76.0999  -10.1991 H       1  UNL1        0.2105
     41 C          21.7786   78.2127   -7.0955 C.3     1  UNL1        0.1693
     42 O          20.4673   78.1994   -6.5286 O.3     1  UNL1       -0.3794
     43 H          20.1524   79.1138   -6.5301 H       1  UNL1        0.2105
@<TRIPOS>BOND
     1    15    16   ar
     2    15    20   ar
     3    15     6    1
     4    16    17   ar
     5    16    21    2
     6    17    18   ar
     7    17    23    1
     8    18    19   ar
     9    18    22    2
    10    19    20   ar
    11     6     7    1
    12     6    11    1
    13     7     8    1
    14     7     9    1
    15     8    13    1
    16     9    10    1
    17     9    12    1
    18    10    11    1
    19    10     5    1
    20    12    14    1
    21     5     4    1
    22     4     1    1
    23     1     2    2
    24     1     3    1
    25     1    24    1
    26    24    25    1
    27    25    26    2
    28    25    27    1
    29    25    28    1
    30    28    29    1
    31    29    30    1
    32    29    37    1
    33    30    31    1
    34    30    34    1
    35    31    32    1
    36    31    35    1
    37    32    33    1
    38    32    36    1
    39    33    41    1
    40    33    37    1
    41    41    42    1
    42    34    38    1
    43    35    39    1
    44    36    40    1
    45    42    43    1
@<TRIPOS>MOLECULE
GDU
 43 45 0 0 0
SMALL
GASTEIGER

@<TRIPOS>ATOM
      1 P          22.1863   71.4876   -2.1776 P.3     1  UNL1        0.2189
      2 O          22.4955   70.2272   -2.8886 O.2     1  UNL1       -0.5170
      3 O          22.6848   72.7382   -3.0610 O.3     1  UNL1       -0.4371
      4 O          20.5990   71.5957   -1.9419 O.3     1  UNL1       -0.3112
      5 C          20.1524   72.7497   -2.6557 C.3     1  UNL1        0.1811
      6 C          17.9336   71.5578   -5.2216 C.3     1  UNL1        0.2383
      7 C          18.1018   70.3522   -4.2618 C.3     1  UNL1        0.1895
      8 O          16.9216   69.5460   -4.2441 O.3     1  UNL1       -0.3779
      9 C          18.3137   71.0526   -2.8944 C.3     1  UNL1        0.1713
     10 C          18.7788   72.4721   -3.2691 C.3     1  UNL1        0.1764
     11 O          18.8630   72.5331   -4.7035 O.3     1  UNL1       -0.3308
     12 O          17.0882   71.0978   -2.1609 O.3     1  UNL1       -0.3794
     13 H          17.0911   68.8169   -3.6313 H       1  UNL1        0.2106
     14 H          16.8190   70.1818   -2.0087 H       1  UNL1        0.2105
     15 N          18.2893   71.1830   -6.5912 N.ar    1  UNL1       -0.2551
     16 C          17.3271   70.8006   -7.4492 C.ar    1  UNL1        0.3323
     17 N          17.6270   70.4544   -8.7149 N.ar    1  UNL1       -0.2743
     18 C          18.9044   70.4763   -9.1414 C.ar    1  UNL1        0.2626
     19 C          19.9291   70.8715   -8.2470 C.ar    1  UNL1        0.0795
     20 C          19.6002   71.2178   -6.9843 C.ar    1  UNL1        0.0869
     21 O          16.1702   70.7763   -7.0790 O.2     1  UNL1       -0.2464
     22 O          19.1773   70.1586  -10.2856 O.2     1  UNL1       -0.2670
     23 H          16.9193   70.1850   -9.3219 H       1  UNL1        0.1734
     24 O          22.9433   71.5005   -0.7565 O.3     1  UNL1       -0.2703
     25 P          22.0910   70.5619    0.2347 P.3     1  UNL1        0.2208
     26 O          21.1646   69.7223   -0.5564 O.2     1  UNL1       -0.5170
     27 O          23.0917   69.6156    1.0698 O.3     1  UNL1       -0.4371
     28 O          21.2482   71.4802    1.2527 O.3     1  UNL1       -0.2858
     29 C          22.1393   72.4836    1.7414 C.3     1  UNL1        0.2704
     30 C          21.8854   72.7073    3.2330 C.3     1  UNL1        0.1967
     31 C          20.4280   73.1349    3.4320 C.3     1  UNL1        0.1715
     32 C          20.1451   74.3442    2.5336 C.3     1  UNL1        0.1694
     33 C          20.5295   73.9953    1.0936 C.3     1  UNL1        0.1761
     34 O          22.1319   71.4950    3.9476 O.3     1  UNL1       -0.3775
     35 O          20.2142   73.4895    4.7999 O.3     1  UNL1       -0.3794
     36 O          20.9136   75.4620    2.9809 O.3     1  UNL1       -0.3794
     37 O          21.9234   73.6978    1.0261 O.3     1  UNL1       -0.3258
     38 H          23.0563   71.2603    3.7883 H       1  UNL1        0.2106
     39 H          20.4148   72.7057    5.3268 H       1  UNL1        0.2105
     40 H          20.6430   75.6415    3.8907 H       1  UNL1        0.2105
     41 C          20.2188   75.1847    0.1821 C.3     1  UNL1        0.1693
     42 O          19.1451   75.9439    0.7405 O.3     1  UNL1       -0.3794
     43 H          18.9815   76.6824    0.1379 H       1  UNL1        0.2105
@<TRIPOS>BOND
     1    15    16   ar
     2    15    20   ar
     3    15     6    1
     4    16    17   ar
     5    16    21    2
     6    17    18   ar
     7    17    23    1
     8    18    19   ar
     9    18    22    2
    10    19    20   ar
    11     6     7    1
    12     6    11    1
    13     7     8    1
    14     7     9    1
    15     8    13    1
    16     9    10    1
    17     9    12    1
    18    10    11    1
    19    10     5    1
    20    12    14    1
    21     5     4    1
    22     4     1    1
    23     1     2    2
    24     1     3    1
    25     1    24    1
    26    24    25    1
    27    25    26    2
    28    25    27    1
    29    25    28    1
    30    28    29    1
    31    29    30    1
    32    29    37    1
    33    30    31    1
    34    30    34    1
    35    31    32    1
    36    31    35    1
    37    32    33    1
    38    32    36    1
    39    33    41    1
    40    33    37    1
    41    41    42    1
    42    34    38    1
    43    35    39    1
    44    36    40    1
    45    42    43    1
@<TRIPOS>MOLECULE
GDU
 43 45 0 0 0
SMALL
GASTEIGER

@<TRIPOS>ATOM
      1 P          21.6446   70.6534   -0.3380 P.3     1  UNL1        0.2189
      2 O          21.6867   69.8098    0.8769 O.2     1  UNL1       -0.5170
      3 O          23.1469   70.9707   -0.8232 O.3     1  UNL1       -0.4371
      4 O          20.8568   69.8758   -1.5048 O.3     1  UNL1       -0.3112
      5 C          20.9829   70.6668   -2.6876 C.3     1  UNL1        0.1811
      6 C          18.4181   70.9672   -5.1894 C.3     1  UNL1        0.2383
      7 C          18.1391   69.6032   -4.5079 C.3     1  UNL1        0.1895
      8 O          16.7420   69.3011   -4.5246 O.3     1  UNL1       -0.3779
      9 C          18.6329   69.8565   -3.0597 C.3     1  UNL1        0.1713
     10 C          19.5926   71.0532   -3.1955 C.3     1  UNL1        0.1764
     11 O          19.6599   71.3951   -4.5907 O.3     1  UNL1       -0.3308
     12 O          17.5336   70.1824   -2.2069 O.3     1  UNL1       -0.3794
     13 H          16.6367   68.4443   -4.0880 H       1  UNL1        0.2106
     14 H          16.9408   69.4187   -2.2098 H       1  UNL1        0.2105
     15 N          18.5728   70.8016   -6.6356 N.ar    1  UNL1       -0.2551
     16 C          17.4823   70.7296   -7.4190 C.ar    1  UNL1        0.3323
     17 N          17.5969   70.5810   -8.7519 N.ar    1  UNL1       -0.2743
     18 C          18.8130   70.4917   -9.3240 C.ar    1  UNL1        0.2626
     19 C          19.9706   70.5602   -8.5106 C.ar    1  UNL1        0.0795
     20 C          19.8271   70.7137   -7.1771 C.ar    1  UNL1        0.0869
     21 O          16.3786   70.8092   -6.9173 O.2     1  UNL1       -0.2464
     22 O          18.9177   70.3523  -10.5299 O.2     1  UNL1       -0.2670
     23 H          16.7992   70.5352   -9.3026 H       1  UNL1        0.1734
     24 O          20.8867   72.0345   -0.0052 O.3     1  UNL1       -0.2703
     25 P          22.0201   73.1698    0.1222 P.3     1  UNL1        0.2208
     26 O          23.1224   72.8739   -0.8193 O.2     1  UNL1       -0.5170
     27 O          21.3831   74.6059   -0.2327 O.3     1  UNL1       -0.4371
     28 O          22.5902   73.1941    1.6270 O.3     1  UNL1       -0.2858
     29 C          22.4258   74.5275    2.1116 C.3     1  UNL1        0.2704
     30 C          23.7660   75.0489    2.6323 C.3     1  UNL1        0.1967
     31 C          24.2607   74.1247    3.7492 C.3     1  UNL1        0.1715
     32 C          23.1562   73.9966    4.8044 C.3     1  UNL1        0.1694
     33 C          21.8617   73.5527    4.1186 C.3     1  UNL1        0.1761
     34 O          24.7185   75.0677    1.5676 O.3     1  UNL1       -0.3775
     35 O          25.4357   74.6782    4.3453 O.3     1  UNL1       -0.3794
     36 O          22.9561   75.2587    5.4423 O.3     1  UNL1       -0.3794
     37 O          21.4625   74.5338    3.1626 O.3     1  UNL1       -0.3258
     38 H          24.3635   75.6544    0.8859 H       1  UNL1        0.2106
     39 H          26.0967   74.7516    3.6453 H       1  UNL1        0.2105
     40 H          23.7959   75.5004    5.8542 H       1  UNL1        0.2105
     41 C          20.7607   73.3885    5.1687 C.3     1  UNL1        0.1693
     42 O          19.4906   73.3161    4.5186 O.3     1  UNL1       -0.3794
     43 H          18.8260   73.2124    5.2135 H       1  UNL1        0.2105
@<TRIPOS>BOND
     1    15    16   ar
     2    15    20   ar
     3    15     6    1
     4    16    17   ar
     5    16    21    2
     6    17    18   ar
     7    17    23    1
     8    18    19   ar
     9    18    22    2
    10    19    20   ar
    11     6     7    1
    12     6    11    1
    13     7     8    1
    14     7     9    1
    15     8    13    1
    16     9    10    1
    17     9    12    1
    18    10    11    1
    19    10     5    1
    20    12    14    1
    21     5     4    1
    22     4     1    1
    23     1     2    2
    24     1     3    1
    25     1    24    1
    26    24    25    1
    27    25    26    2
    28    25    27    1
    29    25    28    1
    30    28    29    1
    31    29    30    1
    32    29    37    1
    33    30    31    1
    34    30    34    1
    35    31    32    1
    36    31    35    1
    37    32    33    1
    38    32    36    1
    39    33    41    1
    40    33    37    1
    41    41    42    1
    42    34    38    1
    43    35    39    1
    44    36    40    1
    45    42    43    1
@<TRIPOS>MOLECULE
GDU
 43 45 0 0 0
SMALL
GASTEIGER

@<TRIPOS>ATOM
      1 P          21.5815   70.6684   -0.3591 P.3     1  UNL1        0.2189
      2 O          21.7890   69.7608    0.7910 O.2     1  UNL1       -0.5170
      3 O          23.0086   71.0882   -0.9756 O.3     1  UNL1       -0.4371
      4 O          20.7103   69.9189   -1.4843 O.3     1  UNL1       -0.3112
      5 C          20.8907   70.6467   -2.7002 C.3     1  UNL1        0.1811
      6 C          18.3840   71.0255   -5.2497 C.3     1  UNL1        0.2383
      7 C          18.0285   69.6886   -4.5501 C.3     1  UNL1        0.1895
      8 O          16.6190   69.4537   -4.5853 O.3     1  UNL1       -0.3779
      9 C          18.5107   69.9435   -3.0983 C.3     1  UNL1        0.1713
     10 C          19.5290   71.0902   -3.2380 C.3     1  UNL1        0.1764
     11 O          19.6352   71.4038   -4.6374 O.3     1  UNL1       -0.3308
     12 O          17.4149   70.3368   -2.2697 O.3     1  UNL1       -0.3794
     13 H          16.4655   68.6107   -4.1363 H       1  UNL1        0.2106
     14 H          16.7860   69.6024   -2.2698 H       1  UNL1        0.2105
     15 N          18.5538   70.8272   -6.6901 N.ar    1  UNL1       -0.2551
     16 C          17.4736   70.7923   -7.4903 C.ar    1  UNL1        0.3323
     17 N          17.6024   70.6148   -8.8184 N.ar    1  UNL1       -0.2743
     18 C          18.8219   70.4586   -9.3685 C.ar    1  UNL1        0.2626
     19 C          19.9683   70.4874   -8.5371 C.ar    1  UNL1        0.0795
     20 C          19.8110   70.6712   -7.2089 C.ar    1  UNL1        0.0869
     21 O          16.3671   70.9322   -7.0086 O.2     1  UNL1       -0.2464
     22 O          18.9391   70.2931  -10.5699 O.2     1  UNL1       -0.2670
     23 H          16.8122   70.5965   -9.3815 H       1  UNL1        0.1734
     24 O          20.8023   71.9884    0.1339 O.3     1  UNL1       -0.2703
     25 P          21.8742   73.1888    0.1378 P.3     1  UNL1        0.2208
     26 O          23.2251   72.6445   -0.1227 O.2     1  UNL1       -0.5170
     27 O          21.4936   74.2515   -1.0111 O.3     1  UNL1       -0.4371
     28 O          21.8567   73.9206    1.5711 O.3     1  UNL1       -0.2858
     29 C          22.6968   73.1568    2.4373 C.3     1  UNL1        0.2704
     30 C          21.8651   72.6035    3.5955 C.3     1  UNL1        0.1967
     31 C          21.2264   73.7715    4.3533 C.3     1  UNL1        0.1715
     32 C          22.3297   74.7569    4.7549 C.3     1  UNL1        0.1694
     33 C          23.1255   75.1487    3.5074 C.3     1  UNL1        0.1761
     34 O          20.8427   71.7465    3.0840 O.3     1  UNL1       -0.3775
     35 O          20.5674   73.2818    5.5231 O.3     1  UNL1       -0.3794
     36 O          23.1976   74.1403    5.7071 O.3     1  UNL1       -0.3794
     37 O          23.7374   73.9897    2.9432 O.3     1  UNL1       -0.3258
     38 H          21.2891   71.0318    2.6100 H       1  UNL1        0.2106
     39 H          19.8927   72.6592    5.2243 H       1  UNL1        0.2105
     40 H          22.6540   73.9061    6.4707 H       1  UNL1        0.2105
     41 C          24.2085   76.1592    3.8920 C.3     1  UNL1        0.1693
     42 O          25.4915   75.6373    3.5423 O.3     1  UNL1       -0.3794
     43 H          26.1441   76.3030    3.7997 H       1  UNL1        0.2105
@<TRIPOS>BOND
     1    15    16   ar
     2    15    20   ar
     3    15     6    1
     4    16    17   ar
     5    16    21    2
     6    17    18   ar
     7    17    23    1
     8    18    19   ar
     9    18    22    2
    10    19    20   ar
    11     6     7    1
    12     6    11    1
    13     7     8    1
    14     7     9    1
    15     8    13    1
    16     9    10    1
    17     9    12    1
    18    10    11    1
    19    10     5    1
    20    12    14    1
    21     5     4    1
    22     4     1    1
    23     1     2    2
    24     1     3    1
    25     1    24    1
    26    24    25    1
    27    25    26    2
    28    25    27    1
    29    25    28    1
    30    28    29    1
    31    29    30    1
    32    29    37    1
    33    30    31    1
    34    30    34    1
    35    31    32    1
    36    31    35    1
    37    32    33    1
    38    32    36    1
    39    33    41    1
    40    33    37    1
    41    41    42    1
    42    34    38    1
    43    35    39    1
    44    36    40    1
    45    42    43    1
@<TRIPOS>MOLECULE
GDU
 43 45 0 0 0
SMALL
GASTEIGER

@<TRIPOS>ATOM
      1 P          22.1069   73.9539   -6.8897 P.3     1  UNL1        0.2189
      2 O          22.8034   72.6640   -7.0912 O.2     1  UNL1       -0.5170
      3 O          23.1870   75.1478   -6.8589 O.3     1  UNL1       -0.4371
      4 O          21.0707   74.1987   -8.0952 O.3     1  UNL1       -0.3112
      5 C          21.3131   73.1767   -9.0633 C.3     1  UNL1        0.1811
      6 C          18.6134   71.1841   -7.7716 C.3     1  UNL1        0.2383
      7 C          18.0053   72.5998   -7.9417 C.3     1  UNL1        0.1895
      8 O          16.6097   72.5228   -8.2414 O.3     1  UNL1       -0.3779
      9 C          18.8013   73.1519   -9.1529 C.3     1  UNL1        0.1713
     10 C          20.0750   72.2870   -9.1891 C.3     1  UNL1        0.1764
     11 O          20.0108   71.3789   -8.0759 O.3     1  UNL1       -0.3308
     12 O          18.0489   72.9970  -10.3578 O.3     1  UNL1       -0.3794
     13 H          16.2938   73.4324   -8.3342 H       1  UNL1        0.2106
     14 H          17.2385   73.5132  -10.2502 H       1  UNL1        0.2105
     15 N          18.4460   70.7104   -6.3966 N.ar    1  UNL1       -0.2551
     16 C          17.3059   70.0944   -6.0376 C.ar    1  UNL1        0.3323
     17 N          17.1282   69.6462   -4.7809 N.ar    1  UNL1       -0.2743
     18 C          18.0915   69.8177   -3.8552 C.ar    1  UNL1        0.2626
     19 C          19.2954   70.4700   -4.2175 C.ar    1  UNL1        0.0795
     20 C          19.4493   70.9059   -5.4859 C.ar    1  UNL1        0.0869
     21 O          16.4282   69.9321   -6.8618 O.2     1  UNL1       -0.2464
     22 O          17.9296   69.4166   -2.7161 O.2     1  UNL1       -0.2670
     23 H          16.3007   69.2000   -4.5403 H       1  UNL1        0.1734
     24 O          21.3079   73.9187   -5.4923 O.3     1  UNL1       -0.2703
     25 P          22.4094   73.7687   -4.3286 P.3     1  UNL1        0.2208
     26 O          23.5363   72.9451   -4.8195 O.2     1  UNL1       -0.5170
     27 O          22.9524   75.2270   -3.9129 O.3     1  UNL1       -0.4371
     28 O          21.7438   73.0597   -3.0463 O.3     1  UNL1       -0.2858
     29 C          22.8065   72.7569   -2.1414 C.3     1  UNL1        0.2704
     30 C          22.8168   71.2550   -1.8524 C.3     1  UNL1        0.1967
     31 C          21.4654   70.8532   -1.2535 C.3     1  UNL1        0.1715
     32 C          21.1804   71.7485   -0.0424 C.3     1  UNL1        0.1694
     33 C          21.2924   73.2142   -0.4696 C.3     1  UNL1        0.1761
     34 O          23.0368   70.5354   -3.0669 O.3     1  UNL1       -0.3775
     35 O          21.5101   69.4852   -0.8424 O.3     1  UNL1       -0.3794
     36 O          22.1288   71.4728    0.9893 O.3     1  UNL1       -0.3794
     37 O          22.6166   73.4820   -0.9286 O.3     1  UNL1       -0.3258
     38 H          23.8927   70.8245   -3.4113 H       1  UNL1        0.2106
     39 H          21.7030   68.9622   -1.6308 H       1  UNL1        0.2105
     40 H          22.0264   70.5407    1.2218 H       1  UNL1        0.2105
     41 C          20.9759   74.1173    0.7247 C.3     1  UNL1        0.1693
     42 O          19.5852   74.4443    0.7181 O.3     1  UNL1       -0.3794
     43 H          19.4276   75.0123    1.4848 H       1  UNL1        0.2105
@<TRIPOS>BOND
     1    15    16   ar
     2    15    20   ar
     3    15     6    1
     4    16    17   ar
     5    16    21    2
     6    17    18   ar
     7    17    23    1
     8    18    19   ar
     9    18    22    2
    10    19    20   ar
    11     6     7    1
    12     6    11    1
    13     7     8    1
    14     7     9    1
    15     8    13    1
    16     9    10    1
    17     9    12    1
    18    10    11    1
    19    10     5    1
    20    12    14    1
    21     5     4    1
    22     4     1    1
    23     1     2    2
    24     1     3    1
    25     1    24    1
    26    24    25    1
    27    25    26    2
    28    25    27    1
    29    25    28    1
    30    28    29    1
    31    29    30    1
    32    29    37    1
    33    30    31    1
    34    30    34    1
    35    31    32    1
    36    31    35    1
    37    32    33    1
    38    32    36    1
    39    33    41    1
    40    33    37    1
    41    41    42    1
    42    34    38    1
    43    35    39    1
    44    36    40    1
    45    42    43    1
@<TRIPOS>MOLECULE
GDU
 43 45 0 0 0
SMALL
GASTEIGER

@<TRIPOS>ATOM
      1 P          22.0062   70.2727   -0.3925 P.3     1  UNL1        0.2189
      2 O          22.6667   69.2073    0.3937 O.2     1  UNL1       -0.5170
      3 O          23.1223   71.2632   -0.9977 O.3     1  UNL1       -0.4371
      4 O          21.1671   69.6113   -1.5947 O.3     1  UNL1       -0.3112
      5 C          21.2153   70.5301   -2.6874 C.3     1  UNL1        0.1811
      6 C          18.5660   70.8465   -5.0974 C.3     1  UNL1        0.2383
      7 C          18.3805   69.4286   -4.4991 C.3     1  UNL1        0.1895
      8 O          17.0017   69.0514   -4.4995 O.3     1  UNL1       -0.3779
      9 C          18.9022   69.6162   -3.0508 C.3     1  UNL1        0.1713
     10 C          19.7921   70.8704   -3.1331 C.3     1  UNL1        0.1764
     11 O          19.8000   71.3036   -4.5044 O.3     1  UNL1       -0.3308
     12 O          17.8125   69.8259   -2.1504 O.3     1  UNL1       -0.3794
     13 H          16.9553   68.1640   -4.1170 H       1  UNL1        0.2106
     14 H          17.2616   69.0323   -2.1878 H       1  UNL1        0.2105
     15 N          18.6869   70.7821   -6.5548 N.ar    1  UNL1       -0.2551
     16 C          17.5783   70.7322   -7.3144 C.ar    1  UNL1        0.3323
     17 N          17.6618   70.6760   -8.6567 N.ar    1  UNL1       -0.2743
     18 C          18.8643   70.6588   -9.2631 C.ar    1  UNL1        0.2626
     19 C          20.0407   70.7050   -8.4755 C.ar    1  UNL1        0.0795
     20 C          19.9284   70.7653   -7.1315 C.ar    1  UNL1        0.0869
     21 O          16.4866   70.7474   -6.7816 O.2     1  UNL1       -0.2464
     22 O          18.9409   70.6031  -10.4778 O.2     1  UNL1       -0.2670
     23 H          16.8513   70.6448   -9.1895 H       1  UNL1        0.1734
     24 O          21.0127   71.1055    0.5625 O.3     1  UNL1       -0.2703
     25 P          21.9143   71.7368    1.7366 P.3     1  UNL1        0.2208
     26 O          21.0647   72.0135    2.9160 O.2     1  UNL1       -0.5170
     27 O          23.0726   70.6941    2.1431 O.3     1  UNL1       -0.4371
     28 O          22.5837   73.1071    1.2229 O.3     1  UNL1       -0.2858
     29 C          21.5316   74.0665    1.1109 C.3     1  UNL1        0.2704
     30 C          21.5601   74.6928   -0.2842 C.3     1  UNL1        0.1967
     31 C          22.9229   75.3565   -0.5050 C.3     1  UNL1        0.1715
     32 C          23.1885   76.3270    0.6513 C.3     1  UNL1        0.1694
     33 C          23.0383   75.5755    1.9764 C.3     1  UNL1        0.1761
     34 O          21.3551   73.6781   -1.2688 O.3     1  UNL1       -0.3775
     35 O          22.9140   76.0713   -1.7425 O.3     1  UNL1       -0.3794
     36 O          22.2502   77.4026    0.5975 O.3     1  UNL1       -0.3794
     37 O          21.7065   75.0786    2.0996 O.3     1  UNL1       -0.3258
     38 H          20.4911   73.2838   -1.0872 H       1  UNL1        0.2106
     39 H          22.7322   75.4258   -2.4372 H       1  UNL1        0.2105
     40 H          22.3768   77.8421   -0.2535 H       1  UNL1        0.2105
     41 C          23.3351   76.5276    3.1372 C.3     1  UNL1        0.1693
     42 O          22.2301   76.5325    4.0426 O.3     1  UNL1       -0.3794
     43 H          22.4570   77.1425    4.7579 H       1  UNL1        0.2105
@<TRIPOS>BOND
     1    15    16   ar
     2    15    20   ar
     3    15     6    1
     4    16    17   ar
     5    16    21    2
     6    17    18   ar
     7    17    23    1
     8    18    19   ar
     9    18    22    2
    10    19    20   ar
    11     6     7    1
    12     6    11    1
    13     7     8    1
    14     7     9    1
    15     8    13    1
    16     9    10    1
    17     9    12    1
    18    10    11    1
    19    10     5    1
    20    12    14    1
    21     5     4    1
    22     4     1    1
    23     1     2    2
    24     1     3    1
    25     1    24    1
    26    24    25    1
    27    25    26    2
    28    25    27    1
    29    25    28    1
    30    28    29    1
    31    29    30    1
    32    29    37    1
    33    30    31    1
    34    30    34    1
    35    31    32    1
    36    31    35    1
    37    32    33    1
    38    32    36    1
    39    33    41    1
    40    33    37    1
    41    41    42    1
    42    34    38    1
    43    35    39    1
    44    36    40    1
    45    42    43    1
@<TRIPOS>MOLECULE
GDU
 43 45 0 0 0
SMALL
GASTEIGER

@<TRIPOS>ATOM
      1 P          22.9231   72.2873   -3.2265 P.3     1  UNL1        0.2189
      2 O          23.7151   73.1291   -4.1504 O.2     1  UNL1       -0.5170
      3 O          23.4466   70.7665   -3.3040 O.3     1  UNL1       -0.4371
      4 O          23.0894   72.8361   -1.7238 O.3     1  UNL1       -0.3112
      5 C          22.7970   71.7446   -0.8499 C.3     1  UNL1        0.1811
      6 C          21.7227   73.4725    2.1145 C.3     1  UNL1        0.2383
      7 C          21.4581   74.4751    0.9623 C.3     1  UNL1        0.1895
      8 O          20.3380   75.3113    1.2611 O.3     1  UNL1       -0.3779
      9 C          21.1409   73.5292   -0.2251 C.3     1  UNL1        0.1713
     10 C          21.7655   72.1843    0.1906 C.3     1  UNL1        0.1764
     11 O          22.4080   72.3825    1.4619 O.3     1  UNL1       -0.3308
     12 O          19.7283   73.4003   -0.3976 O.3     1  UNL1       -0.3794
     13 H          20.2276   75.9091    0.5086 H       1  UNL1        0.2106
     14 H          19.3888   74.2833   -0.5973 H       1  UNL1        0.2105
     15 N          22.5740   74.0761    3.1410 N.ar    1  UNL1       -0.2551
     16 C          22.6645   73.5027    4.3540 C.ar    1  UNL1        0.3323
     17 N          23.4428   74.0354    5.3144 N.ar    1  UNL1       -0.2743
     18 C          24.1396   75.1635    5.0770 C.ar    1  UNL1        0.2626
     19 C          24.0494   75.7816    3.8058 C.ar    1  UNL1        0.0795
     20 C          23.2648   75.2239    2.8593 C.ar    1  UNL1        0.0869
     21 O          22.0423   72.4846    4.5828 O.2     1  UNL1       -0.2464
     22 O          24.8406   75.6491    5.9472 O.2     1  UNL1       -0.2670
     23 H          23.4997   73.6059    6.1827 H       1  UNL1        0.1734
     24 O          21.3707   72.3413   -3.6502 O.3     1  UNL1       -0.2703
     25 P          21.3250   72.7640   -5.2024 P.3     1  UNL1        0.2208
     26 O          20.8801   74.1703   -5.3175 O.2     1  UNL1       -0.5170
     27 O          22.7950   72.6126   -5.8430 O.3     1  UNL1       -0.4371
     28 O          20.2969   71.8085   -5.9899 O.3     1  UNL1       -0.2858
     29 C          19.1633   72.6086   -6.3285 C.3     1  UNL1        0.2704
     30 C          17.8919   71.9365   -5.8077 C.3     1  UNL1        0.1967
     31 C          17.7747   70.5416   -6.4296 C.3     1  UNL1        0.1715
     32 C          17.8640   70.6756   -7.9539 C.3     1  UNL1        0.1694
     33 C          19.1396   71.4421   -8.3123 C.3     1  UNL1        0.1761
     34 O          17.9586   71.8239   -4.3850 O.3     1  UNL1       -0.3775
     35 O          16.5204   69.9591   -6.0691 O.3     1  UNL1       -0.3794
     36 O          16.7228   71.3842   -8.4390 O.3     1  UNL1       -0.3794
     37 O          19.0902   72.7505   -7.7453 O.3     1  UNL1       -0.3258
     38 H          18.0387   72.7226   -4.0374 H       1  UNL1        0.2106
     39 H          16.5034   69.9055   -5.1052 H       1  UNL1        0.2105
     40 H          15.9454   70.8694   -8.1862 H       1  UNL1        0.2105
     41 C          19.2561   71.5517   -9.8343 C.3     1  UNL1        0.1693
     42 O          18.6899   70.3881  -10.4395 O.3     1  UNL1       -0.3794
     43 H          18.7826   70.4969  -11.3960 H       1  UNL1        0.2105
@<TRIPOS>BOND
     1    15    16   ar
     2    15    20   ar
     3    15     6    1
     4    16    17   ar
     5    16    21    2
     6    17    18   ar
     7    17    23    1
     8    18    19   ar
     9    18    22    2
    10    19    20   ar
    11     6     7    1
    12     6    11    1
    13     7     8    1
    14     7     9    1
    15     8    13    1
    16     9    10    1
    17     9    12    1
    18    10    11    1
    19    10     5    1
    20    12    14    1
    21     5     4    1
    22     4     1    1
    23     1     2    2
    24     1     3    1
    25     1    24    1
    26    24    25    1
    27    25    26    2
    28    25    27    1
    29    25    28    1
    30    28    29    1
    31    29    30    1
    32    29    37    1
    33    30    31    1
    34    30    34    1
    35    31    32    1
    36    31    35    1
    37    32    33    1
    38    32    36    1
    39    33    41    1
    40    33    37    1
    41    41    42    1
    42    34    38    1
    43    35    39    1
    44    36    40    1
    45    42    43    1
@<TRIPOS>MOLECULE
GDU
 43 45 0 0 0
SMALL
GASTEIGER

@<TRIPOS>ATOM
      1 P          21.2439   71.0331   -2.2736 P.3     1  UNL1        0.2189
      2 O          21.4559   69.6395   -1.8234 O.2     1  UNL1       -0.5170
      3 O          19.9655   71.6531   -1.5158 O.3     1  UNL1       -0.4371
      4 O          22.5476   71.9115   -1.9334 O.3     1  UNL1       -0.3112
      5 C          22.6340   71.9895   -0.5097 C.3     1  UNL1        0.1811
      6 C          22.1294   74.5675    1.9452 C.3     1  UNL1        0.2383
      7 C          23.6096   74.7261    1.5130 C.3     1  UNL1        0.1895
      8 O          24.0240   76.0911    1.6045 O.3     1  UNL1       -0.3779
      9 C          23.5683   74.2584    0.0349 C.3     1  UNL1        0.1713
     10 C          22.2876   73.4078   -0.0529 C.3     1  UNL1        0.1764
     11 O          21.7054   73.3691    1.2615 O.3     1  UNL1       -0.3308
     12 O          23.4910   75.3832   -0.8430 O.3     1  UNL1       -0.3794
     13 H          24.9492   76.1210    1.3235 H       1  UNL1        0.2106
     14 H          24.2911   75.9064   -0.6990 H       1  UNL1        0.2105
     15 N          22.0287   74.3969    3.3956 N.ar    1  UNL1       -0.2551
     16 C          22.0727   73.1622    3.9265 C.ar    1  UNL1        0.3323
     17 N          21.9858   72.9781    5.2571 N.ar    1  UNL1       -0.2743
     18 C          21.8428   74.0335    6.0817 C.ar    1  UNL1        0.2626
     19 C          21.7891   75.3395    5.5361 C.ar    1  UNL1        0.0795
     20 C          21.8828   75.4961    4.1985 C.ar    1  UNL1        0.0869
     21 O          22.2019   72.2006    3.1953 O.2     1  UNL1       -0.2464
     22 O          21.7593   73.8674    7.2858 O.2     1  UNL1       -0.2670
     23 H          22.0237   72.0802    5.6233 H       1  UNL1        0.1734
     24 O          20.9841   71.0491   -3.8625 O.3     1  UNL1       -0.2703
     25 P          19.5956   70.2760   -4.1161 P.3     1  UNL1        0.2208
     26 O          19.7468   68.8538   -3.7374 O.2     1  UNL1       -0.5170
     27 O          18.4364   70.9484   -3.2226 O.3     1  UNL1       -0.4371
     28 O          19.1994   70.3788   -5.6725 O.3     1  UNL1       -0.2858
     29 C          18.7259   71.7080   -5.8933 C.3     1  UNL1        0.2704
     30 C          17.3125   71.6549   -6.4756 C.3     1  UNL1        0.1967
     31 C          17.3435   70.8666   -7.7886 C.3     1  UNL1        0.1715
     32 C          18.4042   71.4849   -8.7064 C.3     1  UNL1        0.1694
     33 C          19.7363   71.5490   -7.9550 C.3     1  UNL1        0.1761
     34 O          16.4371   71.0098   -5.5489 O.3     1  UNL1       -0.3775
     35 O          16.0625   70.9329   -8.4187 O.3     1  UNL1       -0.3794
     36 O          17.9998   72.8013   -9.0851 O.3     1  UNL1       -0.3794
     37 O          19.5985   72.3768   -6.8010 O.3     1  UNL1       -0.3258
     38 H          16.4543   71.5348   -4.7371 H       1  UNL1        0.2106
     39 H          15.4274   70.5455   -7.8031 H       1  UNL1        0.2105
     40 H          17.1568   72.7127   -9.5484 H       1  UNL1        0.2105
     41 C          20.8109   72.1335   -8.8745 C.3     1  UNL1        0.1693
     42 O          21.9786   72.4359   -8.1089 O.3     1  UNL1       -0.3794
     43 H          22.6299   72.8002   -8.7240 H       1  UNL1        0.2105
@<TRIPOS>BOND
     1    15    16   ar
     2    15    20   ar
     3    15     6    1
     4    16    17   ar
     5    16    21    2
     6    17    18   ar
     7    17    23    1
     8    18    19   ar
     9    18    22    2
    10    19    20   ar
    11     6     7    1
    12     6    11    1
    13     7     8    1
    14     7     9    1
    15     8    13    1
    16     9    10    1
    17     9    12    1
    18    10    11    1
    19    10     5    1
    20    12    14    1
    21     5     4    1
    22     4     1    1
    23     1     2    2
    24     1     3    1
    25     1    24    1
    26    24    25    1
    27    25    26    2
    28    25    27    1
    29    25    28    1
    30    28    29    1
    31    29    30    1
    32    29    37    1
    33    30    31    1
    34    30    34    1
    35    31    32    1
    36    31    35    1
    37    32    33    1
    38    32    36    1
    39    33    41    1
    40    33    37    1
    41    41    42    1
    42    34    38    1
    43    35    39    1
    44    36    40    1
    45    42    43    1
@<TRIPOS>MOLECULE
GDU
 43 45 0 0 0
SMALL
GASTEIGER

@<TRIPOS>ATOM
      1 P          22.2047   70.8453   -0.5487 P.3     1  UNL1        0.2189
      2 O          20.8738   70.5266    0.0142 O.2     1  UNL1       -0.5170
      3 O          23.2038   69.6077   -0.2973 O.3     1  UNL1       -0.4371
      4 O          22.0694   71.1133   -2.1288 O.3     1  UNL1       -0.3112
      5 C          21.2591   70.0630   -2.6587 C.3     1  UNL1        0.1811
      6 C          18.6407   70.8212   -5.0032 C.3     1  UNL1        0.2383
      7 C          18.2520   69.4388   -4.4194 C.3     1  UNL1        0.1895
      8 O          16.8319   69.2774   -4.3931 O.3     1  UNL1       -0.3779
      9 C          18.8261   69.5205   -2.9810 C.3     1  UNL1        0.1713
     10 C          19.8961   70.6247   -3.0673 C.3     1  UNL1        0.1764
     11 O          19.9422   71.0740   -4.4326 O.3     1  UNL1       -0.3308
     12 O          17.8003   69.8799   -2.0534 O.3     1  UNL1       -0.3794
     13 H          16.6577   68.4014   -4.0214 H       1  UNL1        0.2106
     14 H          17.1334   69.1808   -2.0885 H       1  UNL1        0.2105
     15 N          18.7202   70.7629   -6.4637 N.ar    1  UNL1       -0.2551
     16 C          17.5922   70.7973   -7.1949 C.ar    1  UNL1        0.3323
     17 N          17.6378   70.7487   -8.5393 N.ar    1  UNL1       -0.2743
     18 C          18.8207   70.6544   -9.1765 C.ar    1  UNL1        0.2626
     19 C          20.0168   70.6114   -8.4191 C.ar    1  UNL1        0.0795
     20 C          19.9427   70.6661   -7.0722 C.ar    1  UNL1        0.0869
     21 O          16.5178   70.8827   -6.6341 O.2     1  UNL1       -0.2464
     22 O          18.8627   70.6055  -10.3932 O.2     1  UNL1       -0.2670
     23 H          16.8140   70.7789   -9.0513 H       1  UNL1        0.1734
     24 O          22.7901   72.1607    0.1719 O.3     1  UNL1       -0.2703
     25 P          21.6899   72.6322    1.2476 P.3     1  UNL1        0.2208
     26 O          21.2378   71.4640    2.0349 O.2     1  UNL1       -0.5170
     27 O          22.3399   73.7255    2.2357 O.3     1  UNL1       -0.4371
     28 O          20.4332   73.2832    0.4815 O.3     1  UNL1       -0.2858
     29 C          20.6519   74.6942    0.4499 C.3     1  UNL1        0.2704
     30 C          19.4493   75.4098    1.0672 C.3     1  UNL1        0.1967
     31 C          18.1899   75.0399    0.2777 C.3     1  UNL1        0.1715
     32 C          18.4359   75.3386   -1.2055 C.3     1  UNL1        0.1694
     33 C          19.7152   74.6261   -1.6512 C.3     1  UNL1        0.1761
     34 O          19.2986   75.0048    2.4289 O.3     1  UNL1       -0.3775
     35 O          17.0838   75.8128    0.7486 O.3     1  UNL1       -0.3794
     36 O          18.5780   76.7475   -1.3920 O.3     1  UNL1       -0.3794
     37 O          20.8255   75.1163   -0.9008 O.3     1  UNL1       -0.3258
     38 H          20.1152   75.2502    2.8850 H       1  UNL1        0.2106
     39 H          16.9738   75.6027    1.6845 H       1  UNL1        0.2105
     40 H          17.7539   77.1539   -1.0937 H       1  UNL1        0.2105
     41 C          19.9516   74.8899   -3.1400 C.3     1  UNL1        0.1693
     42 O          19.1458   74.0001   -3.9144 O.3     1  UNL1       -0.3794
     43 H          19.3233   74.1990   -4.8440 H       1  UNL1        0.2105
@<TRIPOS>BOND
     1    15    16   ar
     2    15    20   ar
     3    15     6    1
     4    16    17   ar
     5    16    21    2
     6    17    18   ar
     7    17    23    1
     8    18    19   ar
     9    18    22    2
    10    19    20   ar
    11     6     7    1
    12     6    11    1
    13     7     8    1
    14     7     9    1
    15     8    13    1
    16     9    10    1
    17     9    12    1
    18    10    11    1
    19    10     5    1
    20    12    14    1
    21     5     4    1
    22     4     1    1
    23     1     2    2
    24     1     3    1
    25     1    24    1
    26    24    25    1
    27    25    26    2
    28    25    27    1
    29    25    28    1
    30    28    29    1
    31    29    30    1
    32    29    37    1
    33    30    31    1
    34    30    34    1
    35    31    32    1
    36    31    35    1
    37    32    33    1
    38    32    36    1
    39    33    41    1
    40    33    37    1
    41    41    42    1
    42    34    38    1
    43    35    39    1
    44    36    40    1
    45    42    43    1
@<TRIPOS>MOLECULE
GDU
 43 45 0 0 0
SMALL
GASTEIGER

@<TRIPOS>ATOM
      1 P          20.3766   70.2729   -3.0877 P.3     1  UNL1        0.2189
      2 O          19.6514   69.4614   -2.0852 O.2     1  UNL1       -0.5170
      3 O          21.9591   70.0105   -2.9472 O.3     1  UNL1       -0.4371
      4 O          19.8931   69.8594   -4.5649 O.3     1  UNL1       -0.3112
      5 C          18.4663   69.7983   -4.5313 C.3     1  UNL1        0.1811
      6 C          18.6770   72.3629   -7.0425 C.3     1  UNL1        0.2383
      7 C          18.4182   71.0586   -7.8392 C.3     1  UNL1        0.1895
      8 O          17.6800   71.3283   -9.0331 O.3     1  UNL1       -0.3779
      9 C          17.5699   70.2302   -6.8395 C.3     1  UNL1        0.1713
     10 C          17.8866   70.8584   -5.4696 C.3     1  UNL1        0.1764
     11 O          18.8539   71.9001   -5.6868 O.3     1  UNL1       -0.3308
     12 O          16.1790   70.3520   -7.1438 O.3     1  UNL1       -0.3794
     13 H          17.5534   70.4798   -9.4803 H       1  UNL1        0.2106
     14 H          16.0550   69.9966   -8.0343 H       1  UNL1        0.2105
     15 N          19.8882   73.0309   -7.5217 N.ar    1  UNL1       -0.2551
     16 C          19.7871   74.0521   -8.3908 C.ar    1  UNL1        0.3323
     17 N          20.8849   74.6855   -8.8441 N.ar    1  UNL1       -0.2743
     18 C          22.1096   74.2976   -8.4394 C.ar    1  UNL1        0.2626
     19 C          22.2317   73.2197   -7.5286 C.ar    1  UNL1        0.0795
     20 C          21.1142   72.6047   -7.0865 C.ar    1  UNL1        0.0869
     21 O          18.6891   74.4135   -8.7645 O.2     1  UNL1       -0.2464
     22 O          23.1041   74.8673   -8.8528 O.2     1  UNL1       -0.2670
     23 H          20.7931   75.4234   -9.4677 H       1  UNL1        0.1734
     24 O          20.0685   71.8334   -2.8380 O.3     1  UNL1       -0.2703
     25 P          21.4341   72.6319   -3.1343 P.3     1  UNL1        0.2208
     26 O          22.2875   71.8304   -4.0389 O.2     1  UNL1       -0.5170
     27 O          21.0901   74.0424   -3.8316 O.3     1  UNL1       -0.4371
     28 O          22.2144   72.8944   -1.7514 O.3     1  UNL1       -0.2858
     29 C          21.2234   73.1810   -0.7637 C.3     1  UNL1        0.2704
     30 C          21.5880   74.4769   -0.0377 C.3     1  UNL1        0.1967
     31 C          22.9665   74.3144    0.6103 C.3     1  UNL1        0.1715
     32 C          22.9504   73.0576    1.4876 C.3     1  UNL1        0.1694
     33 C          22.4840   71.8681    0.6447 C.3     1  UNL1        0.1761
     34 O          21.6214   75.5564   -0.9730 O.3     1  UNL1       -0.3775
     35 O          23.2573   75.4600    1.4138 O.3     1  UNL1       -0.3794
     36 O          22.0565   73.2518    2.5845 O.3     1  UNL1       -0.3794
     37 O          21.1597   72.1049    0.1693 O.3     1  UNL1       -0.3258
     38 H          20.7377   75.6172   -1.3606 H       1  UNL1        0.2106
     39 H          23.2451   76.2252    0.8250 H       1  UNL1        0.2105
     40 H          22.3852   74.0118    3.0822 H       1  UNL1        0.2105
     41 C          22.4972   70.6008    1.5026 C.3     1  UNL1        0.1693
     42 O          21.8933   69.5289    0.7766 O.3     1  UNL1       -0.3794
     43 H          21.9222   68.7509    1.3504 H       1  UNL1        0.2105
@<TRIPOS>BOND
     1    15    16   ar
     2    15    20   ar
     3    15     6    1
     4    16    17   ar
     5    16    21    2
     6    17    18   ar
     7    17    23    1
     8    18    19   ar
     9    18    22    2
    10    19    20   ar
    11     6     7    1
    12     6    11    1
    13     7     8    1
    14     7     9    1
    15     8    13    1
    16     9    10    1
    17     9    12    1
    18    10    11    1
    19    10     5    1
    20    12    14    1
    21     5     4    1
    22     4     1    1
    23     1     2    2
    24     1     3    1
    25     1    24    1
    26    24    25    1
    27    25    26    2
    28    25    27    1
    29    25    28    1
    30    28    29    1
    31    29    30    1
    32    29    37    1
    33    30    31    1
    34    30    34    1
    35    31    32    1
    36    31    35    1
    37    32    33    1
    38    32    36    1
    39    33    41    1
    40    33    37    1
    41    41    42    1
    42    34    38    1
    43    35    39    1
    44    36    40    1
    45    42    43    1
@<TRIPOS>MOLECULE
GDU
 43 45 0 0 0
SMALL
GASTEIGER

@<TRIPOS>ATOM
      1 P          22.3130   71.3368   -2.7337 P.3     1  UNL1        0.2189
      2 O          21.9073   69.9285   -2.9375 O.2     1  UNL1       -0.5170
      3 O          23.4011   71.7483   -3.8471 O.3     1  UNL1       -0.4371
      4 O          21.0248   72.2910   -2.8640 O.3     1  UNL1       -0.3112
      5 C          21.2938   73.2065   -3.9270 C.3     1  UNL1        0.1811
      6 C          19.6470   72.4671   -7.0365 C.3     1  UNL1        0.2383
      7 C          20.6549   73.5912   -7.3877 C.3     1  UNL1        0.1895
      8 O          21.1120   73.4633   -8.7359 O.3     1  UNL1       -0.3779
      9 C          21.8066   73.3199   -6.3850 C.3     1  UNL1        0.1713
     10 C          21.1442   72.4895   -5.2700 C.3     1  UNL1        0.1764
     11 O          19.7509   72.3579   -5.6009 O.3     1  UNL1       -0.3308
     12 O          22.8533   72.5789   -7.0152 O.3     1  UNL1       -0.3794
     13 H          21.7326   74.1893   -8.8901 H       1  UNL1        0.2106
     14 H          23.1868   73.1257   -7.7394 H       1  UNL1        0.2105
     15 N          18.2889   72.8482   -7.4278 N.ar    1  UNL1       -0.2551
     16 C          17.4295   71.9070   -7.8566 C.ar    1  UNL1        0.3323
     17 N          16.1741   72.2303   -8.2190 N.ar    1  UNL1       -0.2743
     18 C          15.7598   73.5109   -8.1668 C.ar    1  UNL1        0.2626
     19 C          16.6560   74.5138   -7.7227 C.ar    1  UNL1        0.0795
     20 C          17.9080   74.1615   -7.3612 C.ar    1  UNL1        0.0869
     21 O          17.7887   70.7475   -7.9085 O.2     1  UNL1       -0.2464
     22 O          14.6252   73.8052   -8.4992 O.2     1  UNL1       -0.2670
     23 H          15.5659   71.5375   -8.5219 H       1  UNL1        0.1734
     24 O          22.9584   71.5016   -1.2679 O.3     1  UNL1       -0.2703
     25 P          21.7920   71.1830   -0.2059 P.3     1  UNL1        0.2208
     26 O          20.5012   71.6858   -0.7256 O.2     1  UNL1       -0.5170
     27 O          21.6946   69.5916    0.0226 O.3     1  UNL1       -0.4371
     28 O          22.1263   71.9053    1.1929 O.3     1  UNL1       -0.2858
     29 C          21.1508   72.9327    1.3730 C.3     1  UNL1        0.2704
     30 C          21.7240   74.2682    0.8965 C.3     1  UNL1        0.1967
     31 C          22.9924   74.5804    1.6966 C.3     1  UNL1        0.1715
     32 C          22.6587   74.5099    3.1911 C.3     1  UNL1        0.1694
     33 C          22.0160   73.1541    3.4941 C.3     1  UNL1        0.1761
     34 O          22.0421   74.1837   -0.4938 O.3     1  UNL1       -0.3775
     35 O          23.4573   75.8911    1.3674 O.3     1  UNL1       -0.3794
     36 O          21.7515   75.5602    3.5282 O.3     1  UNL1       -0.3794
     37 O          20.8040   73.0197    2.7532 O.3     1  UNL1       -0.3258
     38 H          21.2181   73.9793   -0.9566 H       1  UNL1        0.2106
     39 H          23.6427   75.8924    0.4198 H       1  UNL1        0.2105
     40 H          22.1949   76.3919    3.3159 H       1  UNL1        0.2105
     41 C          21.7100   73.0598    4.9906 C.3     1  UNL1        0.1693
     42 O          20.3454   73.4150    5.2203 O.3     1  UNL1       -0.3794
     43 H          20.1938   73.3421    6.1726 H       1  UNL1        0.2105
@<TRIPOS>BOND
     1    15    16   ar
     2    15    20   ar
     3    15     6    1
     4    16    17   ar
     5    16    21    2
     6    17    18   ar
     7    17    23    1
     8    18    19   ar
     9    18    22    2
    10    19    20   ar
    11     6     7    1
    12     6    11    1
    13     7     8    1
    14     7     9    1
    15     8    13    1
    16     9    10    1
    17     9    12    1
    18    10    11    1
    19    10     5    1
    20    12    14    1
    21     5     4    1
    22     4     1    1
    23     1     2    2
    24     1     3    1
    25     1    24    1
    26    24    25    1
    27    25    26    2
    28    25    27    1
    29    25    28    1
    30    28    29    1
    31    29    30    1
    32    29    37    1
    33    30    31    1
    34    30    34    1
    35    31    32    1
    36    31    35    1
    37    32    33    1
    38    32    36    1
    39    33    41    1
    40    33    37    1
    41    41    42    1
    42    34    38    1
    43    35    39    1
    44    36    40    1
    45    42    43    1
@<TRIPOS>MOLECULE
GDU
 43 45 0 0 0
SMALL
GASTEIGER

@<TRIPOS>ATOM
      1 P          20.1858   74.7310   -3.1025 P.3     1  UNL1        0.2189
      2 O          19.2167   74.3052   -2.0685 O.2     1  UNL1       -0.5170
      3 O          20.0424   76.3153   -3.3523 O.3     1  UNL1       -0.4371
      4 O          21.6797   74.3988   -2.6077 O.3     1  UNL1       -0.3112
      5 C          21.7107   74.6329   -1.1989 C.3     1  UNL1        0.1811
      6 C          22.9378   72.7639    1.6169 C.3     1  UNL1        0.2383
      7 C          21.7753   71.9050    1.0565 C.3     1  UNL1        0.1895
      8 O          22.0130   70.5141    1.2849 O.3     1  UNL1       -0.3779
      9 C          21.8292   72.2339   -0.4582 C.3     1  UNL1        0.1713
     10 C          22.5844   73.5744   -0.5234 C.3     1  UNL1        0.1764
     11 O          22.8753   73.9711    0.8280 O.3     1  UNL1       -0.3308
     12 O          22.5407   71.2163   -1.1654 O.3     1  UNL1       -0.3794
     13 H          21.2568   70.0376    0.9147 H       1  UNL1        0.2106
     14 H          22.0513   70.3923   -1.0379 H       1  UNL1        0.2105
     15 N          22.7248   73.0623    3.0341 N.ar    1  UNL1       -0.2551
     16 C          21.5541   72.7439    3.6140 C.ar    1  UNL1        0.3323
     17 N          21.3341   73.0042    4.9162 N.ar    1  UNL1       -0.2743
     18 C          22.2853   73.6002    5.6606 C.ar    1  UNL1        0.2626
     19 C          23.5213   73.9464    5.0618 C.ar    1  UNL1        0.0795
     20 C          23.7172   73.6702    3.7549 C.ar    1  UNL1        0.0869
     21 O          20.6868   72.2054    2.9553 O.2     1  UNL1       -0.2464
     22 O          22.0853   73.8405    6.8382 O.2     1  UNL1       -0.2670
     23 H          20.4848   72.7636    5.3194 H       1  UNL1        0.1734
     24 O          19.8859   73.9435   -4.4745 O.3     1  UNL1       -0.2703
     25 P          19.9458   72.3719   -4.1331 P.3     1  UNL1        0.2208
     26 O          21.3560   71.9576   -3.9632 O.2     1  UNL1       -0.5170
     27 O          19.1357   72.0877   -2.7703 O.3     1  UNL1       -0.4371
     28 O          19.2807   71.5346   -5.3358 O.3     1  UNL1       -0.2858
     29 C          18.0540   72.1869   -5.6668 C.3     1  UNL1        0.2704
     30 C          16.9016   71.1866   -5.5644 C.3     1  UNL1        0.1967
     31 C          17.1683   70.0192   -6.5198 C.3     1  UNL1        0.1715
     32 C          17.4207   70.5822   -7.9230 C.3     1  UNL1        0.1694
     33 C          18.5360   71.6278   -7.8466 C.3     1  UNL1        0.1761
     34 O          16.8086   70.6990   -4.2247 O.3     1  UNL1       -0.3775
     35 O          16.0336   69.1507   -6.5452 O.3     1  UNL1       -0.3794
     36 O          16.2250   71.1872   -8.4172 O.3     1  UNL1       -0.3794
     37 O          18.1336   72.6995   -6.9948 O.3     1  UNL1       -0.3258
     38 H          16.6481   71.4665   -3.6590 H       1  UNL1        0.2106
     39 H          15.9056   68.8310   -5.6431 H       1  UNL1        0.2105
     40 H          15.5511   70.4955   -8.4427 H       1  UNL1        0.2105
     41 C          18.8196   72.1718   -9.2486 C.3     1  UNL1        0.1693
     42 O          17.7963   73.0990   -9.6149 O.3     1  UNL1       -0.3794
     43 H          18.0122   73.4181  -10.5019 H       1  UNL1        0.2105
@<TRIPOS>BOND
     1    15    16   ar
     2    15    20   ar
     3    15     6    1
     4    16    17   ar
     5    16    21    2
     6    17    18   ar
     7    17    23    1
     8    18    19   ar
     9    18    22    2
    10    19    20   ar
    11     6     7    1
    12     6    11    1
    13     7     8    1
    14     7     9    1
    15     8    13    1
    16     9    10    1
    17     9    12    1
    18    10    11    1
    19    10     5    1
    20    12    14    1
    21     5     4    1
    22     4     1    1
    23     1     2    2
    24     1     3    1
    25     1    24    1
    26    24    25    1
    27    25    26    2
    28    25    27    1
    29    25    28    1
    30    28    29    1
    31    29    30    1
    32    29    37    1
    33    30    31    1
    34    30    34    1
    35    31    32    1
    36    31    35    1
    37    32    33    1
    38    32    36    1
    39    33    41    1
    40    33    37    1
    41    41    42    1
    42    34    38    1
    43    35    39    1
    44    36    40    1
    45    42    43    1
@<TRIPOS>MOLECULE
GDU
 43 45 0 0 0
SMALL
GASTEIGER

@<TRIPOS>ATOM
      1 P          21.8322   70.6342   -0.9179 P.3     1  UNL1        0.2189
      2 O          23.2689   70.2821   -0.8823 O.2     1  UNL1       -0.5170
      3 O          21.0023   69.4338   -1.5986 O.3     1  UNL1       -0.4371
      4 O          21.3001   70.8719    0.5812 O.3     1  UNL1       -0.3112
      5 C          22.4472   70.8713    1.4324 C.3     1  UNL1        0.1811
      6 C          22.0549   74.4221    1.8387 C.3     1  UNL1        0.2383
      7 C          20.7040   73.8249    2.3093 C.3     1  UNL1        0.1895
      8 O          20.1130   74.6387    3.3251 O.3     1  UNL1       -0.3779
      9 C          21.1385   72.4516    2.8841 C.3     1  UNL1        0.1713
     10 C          22.5012   72.1819    2.2194 C.3     1  UNL1        0.1764
     11 O          22.7692   73.2771    1.3266 O.3     1  UNL1       -0.3308
     12 O          21.2730   72.5245    4.3048 O.3     1  UNL1       -0.3794
     13 H          19.2797   74.2143    3.5727 H       1  UNL1        0.2106
     14 H          20.4024   72.7537    4.6572 H       1  UNL1        0.2105
     15 N          21.8431   75.4128    0.7820 N.ar    1  UNL1       -0.2551
     16 C          22.6151   76.5128    0.7349 C.ar    1  UNL1        0.3323
     17 N          22.4435   77.4374   -0.2282 N.ar    1  UNL1       -0.2743
     18 C          21.4835   77.2788   -1.1596 C.ar    1  UNL1        0.2626
     19 C          20.6590   76.1278   -1.1190 C.ar    1  UNL1        0.0795
     20 C          20.8554   75.2142   -0.1448 C.ar    1  UNL1        0.0869
     21 O          23.4855   76.6694    1.5680 O.2     1  UNL1       -0.2464
     22 O          21.3242   78.1175   -2.0290 O.2     1  UNL1       -0.2670
     23 H          23.0126   78.2231   -0.2495 H       1  UNL1        0.1734
     24 O          21.6315   71.9795   -1.7796 O.3     1  UNL1       -0.2703
     25 P          22.0752   71.6378   -3.2883 P.3     1  UNL1        0.2208
     26 O          22.4333   72.8889   -3.9923 O.2     1  UNL1       -0.5170
     27 O          23.3498   70.6534   -3.2628 O.3     1  UNL1       -0.4371
     28 O          20.8581   70.9179   -4.0568 O.3     1  UNL1       -0.2858
     29 C          19.8650   71.9176   -4.2893 C.3     1  UNL1        0.2704
     30 C          18.5151   71.4260   -3.7645 C.3     1  UNL1        0.1967
     31 C          18.1474   70.1218   -4.4789 C.3     1  UNL1        0.1715
     32 C          18.2125   70.3568   -5.9922 C.3     1  UNL1        0.1694
     33 C          19.5872   70.9280   -6.3485 C.3     1  UNL1        0.1761
     34 O          18.6042   71.1941   -2.3576 O.3     1  UNL1       -0.3775
     35 O          16.8245   69.7278   -4.1082 O.3     1  UNL1       -0.3794
     36 O          17.1921   71.2792   -6.3769 O.3     1  UNL1       -0.3794
     37 O          19.7746   72.1788   -5.6880 O.3     1  UNL1       -0.3258
     38 H          18.8441   72.0377   -1.9505 H       1  UNL1        0.2106
     39 H          16.8276   69.6033   -3.1508 H       1  UNL1        0.2105
     40 H          16.3473   70.8814   -6.1288 H       1  UNL1        0.2105
     41 C          19.6750   71.1344   -7.8623 C.3     1  UNL1        0.1693
     42 O          20.3010   69.9985   -8.4615 O.3     1  UNL1       -0.3794
     43 H          20.3362   70.1678   -9.4130 H       1  UNL1        0.2105
@<TRIPOS>BOND
     1    15    16   ar
     2    15    20   ar
     3    15     6    1
     4    16    17   ar
     5    16    21    2
     6    17    18   ar
     7    17    23    1
     8    18    19   ar
     9    18    22    2
    10    19    20   ar
    11     6     7    1
    12     6    11    1
    13     7     8    1
    14     7     9    1
    15     8    13    1
    16     9    10    1
    17     9    12    1
    18    10    11    1
    19    10     5    1
    20    12    14    1
    21     5     4    1
    22     4     1    1
    23     1     2    2
    24     1     3    1
    25     1    24    1
    26    24    25    1
    27    25    26    2
    28    25    27    1
    29    25    28    1
    30    28    29    1
    31    29    30    1
    32    29    37    1
    33    30    31    1
    34    30    34    1
    35    31    32    1
    36    31    35    1
    37    32    33    1
    38    32    36    1
    39    33    41    1
    40    33    37    1
    41    41    42    1
    42    34    38    1
    43    35    39    1
    44    36    40    1
    45    42    43    1
@<TRIPOS>MOLECULE
GDU
 43 45 0 0 0
SMALL
GASTEIGER

@<TRIPOS>ATOM
      1 P          23.2459   74.3237   -4.2199 P.3     1  UNL1        0.2189
      2 O          23.7225   72.9260   -4.3136 O.2     1  UNL1       -0.5170
      3 O          22.7578   74.6245   -2.7152 O.3     1  UNL1       -0.4371
      4 O          24.4428   75.3262   -4.6063 O.3     1  UNL1       -0.3112
      5 C          24.9110   75.9016   -3.3856 C.3     1  UNL1        0.1811
      6 C          28.2955   74.7813   -3.8517 C.3     1  UNL1        0.2383
      7 C          28.4344   76.1631   -3.1630 C.3     1  UNL1        0.1895
      8 O          29.6067   76.2104   -2.3465 O.3     1  UNL1       -0.3779
      9 C          27.1518   76.2230   -2.2932 C.3     1  UNL1        0.1713
     10 C          26.2033   75.2058   -2.9545 C.3     1  UNL1        0.1764
     11 O          26.8790   74.6729   -4.1068 O.3     1  UNL1       -0.3308
     12 O          27.4431   75.8435   -0.9467 O.3     1  UNL1       -0.3794
     13 H          29.6343   77.0919   -1.9490 H       1  UNL1        0.2106
     14 H          28.0849   76.4824   -0.6082 H       1  UNL1        0.2105
     15 N          29.0494   74.7497   -5.1061 N.ar    1  UNL1       -0.2551
     16 C          30.2820   74.2126   -5.1300 C.ar    1  UNL1        0.3323
     17 N          30.9948   74.1679   -6.2709 N.ar    1  UNL1       -0.2743
     18 C          30.4854   74.6724   -7.4112 C.ar    1  UNL1        0.2626
     19 C          29.1905   75.2465   -7.3998 C.ar    1  UNL1        0.0795
     20 C          28.4956   75.2745   -6.2427 C.ar    1  UNL1        0.0869
     21 O          30.7546   73.7531   -4.1094 O.2     1  UNL1       -0.2464
     22 O          31.1318   74.6367   -8.4434 O.2     1  UNL1       -0.2670
     23 H          31.8811   73.7727   -6.2708 H       1  UNL1        0.1734
     24 O          22.0149   74.5391   -5.2351 O.3     1  UNL1       -0.2703
     25 P          21.6493   73.0927   -5.8388 P.3     1  UNL1        0.2208
     26 O          22.7395   72.6411   -6.7313 O.2     1  UNL1       -0.5170
     27 O          21.4709   72.0383   -4.6344 O.3     1  UNL1       -0.4371
     28 O          20.2766   73.1896   -6.6732 O.3     1  UNL1       -0.2858
     29 C          19.9056   71.8543   -7.0181 C.3     1  UNL1        0.2704
     30 C          19.7323   71.7494   -8.5342 C.3     1  UNL1        0.1967
     31 C          18.6561   72.7429   -8.9828 C.3     1  UNL1        0.1715
     32 C          17.3857   72.4929   -8.1623 C.3     1  UNL1        0.1694
     33 C          17.7370   72.5434   -6.6733 C.3     1  UNL1        0.1761
     34 O          20.9690   72.0574   -9.1797 O.3     1  UNL1       -0.3775
     35 O          18.3780   72.5545  -10.3720 O.3     1  UNL1       -0.3794
     36 O          16.8509   71.2094   -8.4887 O.3     1  UNL1       -0.3794
     37 O          18.6823   71.5195   -6.3668 O.3     1  UNL1       -0.3258
     38 H          21.6170   71.4133   -8.8630 H       1  UNL1        0.2106
     39 H          19.2046   72.7096  -10.8464 H       1  UNL1        0.2105
     40 H          16.6504   71.2218   -9.4336 H       1  UNL1        0.2105
     41 C          16.4686   72.3289   -5.8442 C.3     1  UNL1        0.1693
     42 O          16.3162   70.9373   -5.5597 O.3     1  UNL1       -0.3794
     43 H          15.5080   70.8454   -5.0365 H       1  UNL1        0.2105
@<TRIPOS>BOND
     1    15    16   ar
     2    15    20   ar
     3    15     6    1
     4    16    17   ar
     5    16    21    2
     6    17    18   ar
     7    17    23    1
     8    18    19   ar
     9    18    22    2
    10    19    20   ar
    11     6     7    1
    12     6    11    1
    13     7     8    1
    14     7     9    1
    15     8    13    1
    16     9    10    1
    17     9    12    1
    18    10    11    1
    19    10     5    1
    20    12    14    1
    21     5     4    1
    22     4     1    1
    23     1     2    2
    24     1     3    1
    25     1    24    1
    26    24    25    1
    27    25    26    2
    28    25    27    1
    29    25    28    1
    30    28    29    1
    31    29    30    1
    32    29    37    1
    33    30    31    1
    34    30    34    1
    35    31    32    1
    36    31    35    1
    37    32    33    1
    38    32    36    1
    39    33    41    1
    40    33    37    1
    41    41    42    1
    42    34    38    1
    43    35    39    1
    44    36    40    1
    45    42    43    1
@<TRIPOS>MOLECULE
GDU
 43 45 0 0 0
SMALL
GASTEIGER

@<TRIPOS>ATOM
      1 P          22.9361   72.6587   -3.5749 P.3     1  UNL1        0.2189
      2 O          23.8625   73.4310   -4.4321 O.2     1  UNL1       -0.5170
      3 O          23.4610   71.1417   -3.4480 O.3     1  UNL1       -0.4371
      4 O          22.8719   73.3283   -2.1139 O.3     1  UNL1       -0.3112
      5 C          22.3066   74.6296   -2.2797 C.3     1  UNL1        0.1811
      6 C          23.2903   75.4924    1.0692 C.3     1  UNL1        0.2383
      7 C          24.5907   74.9750    0.4028 C.3     1  UNL1        0.1895
      8 O          25.7391   75.6239    0.9536 O.3     1  UNL1       -0.3779
      9 C          24.3816   75.3840   -1.0785 C.3     1  UNL1        0.1713
     10 C          22.8578   75.5678   -1.2045 C.3     1  UNL1        0.1764
     11 O          22.2780   75.2433    0.0709 O.3     1  UNL1       -0.3308
     12 O          25.0648   76.6070   -1.3603 O.3     1  UNL1       -0.3794
     13 H          26.5108   75.2587    0.4986 H       1  UNL1        0.2106
     14 H          26.0054   76.4442   -1.2070 H       1  UNL1        0.2105
     15 N          23.0025   74.7437    2.2937 N.ar    1  UNL1       -0.2551
     16 C          22.6957   73.4365    2.2195 C.ar    1  UNL1        0.3323
     17 N          22.4304   72.7244    3.3305 N.ar    1  UNL1       -0.2743
     18 C          22.4586   73.3159    4.5403 C.ar    1  UNL1        0.2626
     19 C          22.7745   74.6935    4.6332 C.ar    1  UNL1        0.0795
     20 C          23.0406   75.3832    3.5036 C.ar    1  UNL1        0.0869
     21 O          22.6669   72.8891    1.1353 O.2     1  UNL1       -0.2464
     22 O          22.2139   72.6732    5.5460 O.2     1  UNL1       -0.2670
     23 H          22.2151   71.7809    3.2587 H       1  UNL1        0.1734
     24 O          21.4670   72.6634   -4.2338 O.3     1  UNL1       -0.2703
     25 P          21.6123   73.3254   -5.6934 P.3     1  UNL1        0.2208
     26 O          21.7629   74.7909   -5.5574 O.2     1  UNL1       -0.5170
     27 O          22.9098   72.7192   -6.4306 O.3     1  UNL1       -0.4371
     28 O          20.2997   72.9985   -6.5653 O.3     1  UNL1       -0.2858
     29 C          20.5124   71.7240   -7.1737 C.3     1  UNL1        0.2704
     30 C          20.3235   71.8442   -8.6867 C.3     1  UNL1        0.1967
     31 C          18.9067   72.3507   -8.9736 C.3     1  UNL1        0.1715
     32 C          17.9051   71.4341   -8.2621 C.3     1  UNL1        0.1694
     33 C          18.2766   71.3466   -6.7797 C.3     1  UNL1        0.1761
     34 O          21.2790   72.7648   -9.2167 O.3     1  UNL1       -0.3775
     35 O          18.6649   72.3285  -10.3820 O.3     1  UNL1       -0.3794
     36 O          17.9487   70.1324   -8.8482 O.3     1  UNL1       -0.3794
     37 O          19.5809   70.7844   -6.6427 O.3     1  UNL1       -0.3258
     38 H          22.1539   72.4103   -9.0072 H       1  UNL1        0.2106
     39 H          19.3228   72.9070  -10.7881 H       1  UNL1        0.2105
     40 H          17.7144   70.2368   -9.7796 H       1  UNL1        0.2105
     41 C          17.2622   70.4607   -6.0529 C.3     1  UNL1        0.1693
     42 O          16.0623   70.3805   -6.8242 O.3     1  UNL1       -0.3794
     43 H          15.4513   69.8142   -6.3330 H       1  UNL1        0.2105
@<TRIPOS>BOND
     1    15    16   ar
     2    15    20   ar
     3    15     6    1
     4    16    17   ar
     5    16    21    2
     6    17    18   ar
     7    17    23    1
     8    18    19   ar
     9    18    22    2
    10    19    20   ar
    11     6     7    1
    12     6    11    1
    13     7     8    1
    14     7     9    1
    15     8    13    1
    16     9    10    1
    17     9    12    1
    18    10    11    1
    19    10     5    1
    20    12    14    1
    21     5     4    1
    22     4     1    1
    23     1     2    2
    24     1     3    1
    25     1    24    1
    26    24    25    1
    27    25    26    2
    28    25    27    1
    29    25    28    1
    30    28    29    1
    31    29    30    1
    32    29    37    1
    33    30    31    1
    34    30    34    1
    35    31    32    1
    36    31    35    1
    37    32    33    1
    38    32    36    1
    39    33    41    1
    40    33    37    1
    41    41    42    1
    42    34    38    1
    43    35    39    1
    44    36    40    1
    45    42    43    1
@<TRIPOS>MOLECULE
GDU
 43 45 0 0 0
SMALL
GASTEIGER

@<TRIPOS>ATOM
      1 P          22.8818   72.5276   -3.5393 P.3     1  UNL1        0.2189
      2 O          23.8571   73.1774   -4.4426 O.2     1  UNL1       -0.5170
      3 O          23.2682   70.9747   -3.3604 O.3     1  UNL1       -0.4371
      4 O          22.9096   73.2561   -2.1056 O.3     1  UNL1       -0.3112
      5 C          22.9558   74.6616   -2.3564 C.3     1  UNL1        0.1811
      6 C          26.3604   75.6615   -1.7768 C.3     1  UNL1        0.2383
      7 C          25.6893   76.9105   -2.4034 C.3     1  UNL1        0.1895
      8 O          26.2916   78.1117   -1.9157 O.3     1  UNL1       -0.3779
      9 C          24.2280   76.7809   -1.9005 C.3     1  UNL1        0.1713
     10 C          24.0869   75.2902   -1.5406 C.3     1  UNL1        0.1764
     11 O          25.3342   74.6499   -1.8608 O.3     1  UNL1       -0.3308
     12 O          24.0210   77.6021   -0.7495 O.3     1  UNL1       -0.3794
     13 H          25.8310   78.8477   -2.3423 H       1  UNL1        0.2106
     14 H          24.1810   78.5150   -1.0244 H       1  UNL1        0.2105
     15 N          27.5396   75.2653   -2.5483 N.ar    1  UNL1       -0.2551
     16 C          27.4179   74.9917   -3.8592 C.ar    1  UNL1        0.3323
     17 N          28.4870   74.6286   -4.5921 N.ar    1  UNL1       -0.2743
     18 C          29.7009   74.5235   -4.0181 C.ar    1  UNL1        0.2626
     19 C          29.8431   74.8030   -2.6368 C.ar    1  UNL1        0.0795
     20 C          28.7553   75.1692   -1.9262 C.ar    1  UNL1        0.0869
     21 O          26.3293   75.0826   -4.3911 O.2     1  UNL1       -0.2464
     22 O          30.6683   74.1903   -4.6796 O.2     1  UNL1       -0.2670
     23 H          28.3815   74.4390   -5.5380 H       1  UNL1        0.1734
     24 O          21.4059   72.6425   -4.1725 O.3     1  UNL1       -0.2703
     25 P          21.5748   73.2943   -5.6342 P.3     1  UNL1        0.2208
     26 O          21.7812   74.7535   -5.5025 O.2     1  UNL1       -0.5170
     27 O          22.8474   72.6372   -6.3708 O.3     1  UNL1       -0.4371
     28 O          20.2497   73.0151   -6.5038 O.3     1  UNL1       -0.2858
     29 C          20.3971   71.7164   -7.0794 C.3     1  UNL1        0.2704
     30 C          20.2540   71.8136   -8.5990 C.3     1  UNL1        0.1967
     31 C          18.8793   72.4007   -8.9338 C.3     1  UNL1        0.1715
     32 C          17.8047   71.5647   -8.2296 C.3     1  UNL1        0.1694
     33 C          18.1329   71.4880   -6.7364 C.3     1  UNL1        0.1761
     34 O          21.2783   72.6606   -9.1230 O.3     1  UNL1       -0.3775
     35 O          18.6718   72.3615  -10.3472 O.3     1  UNL1       -0.3794
     36 O          17.7811   70.2497   -8.7867 O.3     1  UNL1       -0.3794
     37 O          19.3954   70.8489   -6.5533 O.3     1  UNL1       -0.3258
     38 H          22.1236   72.2572   -8.8831 H       1  UNL1        0.2106
     39 H          19.3746   72.8885  -10.7480 H       1  UNL1        0.2105
     40 H          17.5771   70.3473   -9.7259 H       1  UNL1        0.2105
     41 C          17.0470   70.6837   -6.0180 C.3     1  UNL1        0.1693
     42 O          16.1813   71.5762   -5.3145 O.3     1  UNL1       -0.3794
     43 H          15.5127   71.0311   -4.8774 H       1  UNL1        0.2105
@<TRIPOS>BOND
     1    15    16   ar
     2    15    20   ar
     3    15     6    1
     4    16    17   ar
     5    16    21    2
     6    17    18   ar
     7    17    23    1
     8    18    19   ar
     9    18    22    2
    10    19    20   ar
    11     6     7    1
    12     6    11    1
    13     7     8    1
    14     7     9    1
    15     8    13    1
    16     9    10    1
    17     9    12    1
    18    10    11    1
    19    10     5    1
    20    12    14    1
    21     5     4    1
    22     4     1    1
    23     1     2    2
    24     1     3    1
    25     1    24    1
    26    24    25    1
    27    25    26    2
    28    25    27    1
    29    25    28    1
    30    28    29    1
    31    29    30    1
    32    29    37    1
    33    30    31    1
    34    30    34    1
    35    31    32    1
    36    31    35    1
    37    32    33    1
    38    32    36    1
    39    33    41    1
    40    33    37    1
    41    41    42    1
    42    34    38    1
    43    35    39    1
    44    36    40    1
    45    42    43    1
@<TRIPOS>MOLECULE
GDU
 43 45 0 0 0
SMALL
GASTEIGER

@<TRIPOS>ATOM
      1 P          18.0998   70.1383   -3.3886 P.3     1  UNL1        0.2189
      2 O          18.5470   69.1862   -2.3479 O.2     1  UNL1       -0.5170
      3 O          16.7781   70.9057   -2.8816 O.3     1  UNL1       -0.4371
      4 O          19.2657   71.2089   -3.6737 O.3     1  UNL1       -0.3112
      5 C          19.5002   71.9019   -2.4468 C.3     1  UNL1        0.1811
      6 C          22.4668   72.3316   -0.4613 C.3     1  UNL1        0.2383
      7 C          22.3555   70.7994   -0.6681 C.3     1  UNL1        0.1895
      8 O          23.6496   70.1925   -0.6901 O.3     1  UNL1       -0.3779
      9 C          21.6779   70.7077   -2.0601 C.3     1  UNL1        0.1713
     10 C          21.0053   72.0814   -2.2400 C.3     1  UNL1        0.1764
     11 O          21.2467   72.8394   -1.0420 O.3     1  UNL1       -0.3308
     12 O          22.6556   70.4848   -3.0780 O.3     1  UNL1       -0.3794
     13 H          23.5106   69.2441   -0.8210 H       1  UNL1        0.2106
     14 H          23.0813   69.6403   -2.8773 H       1  UNL1        0.2105
     15 N          22.5346   72.6583    0.9640 N.ar    1  UNL1       -0.2551
     16 C          22.1021   71.7675    1.8737 C.ar    1  UNL1        0.3323
     17 N          22.1567   72.0417    3.1904 N.ar    1  UNL1       -0.2743
     18 C          22.6392   73.2238    3.6194 C.ar    1  UNL1        0.2626
     19 C          23.0930   74.1742    2.6722 C.ar    1  UNL1        0.0795
     20 C          23.0309   73.8718    1.3580 C.ar    1  UNL1        0.0869
     21 O          21.6647   70.6967    1.5019 O.2     1  UNL1       -0.2464
     22 O          22.6845   73.4748    4.8108 O.2     1  UNL1       -0.2670
     23 H          21.8441   71.3852    3.8332 H       1  UNL1        0.1734
     24 O          17.7655   69.3338   -4.7426 O.3     1  UNL1       -0.2703
     25 P          17.1423   70.3983   -5.7762 P.3     1  UNL1        0.2208
     26 O          16.1784   69.7149   -6.6667 O.2     1  UNL1       -0.5170
     27 O          16.3850   71.5606   -4.9578 O.3     1  UNL1       -0.4371
     28 O          18.3226   71.0462   -6.6578 O.3     1  UNL1       -0.2858
     29 C          18.0686   72.4501   -6.7237 C.3     1  UNL1        0.2704
     30 C          17.6043   72.8179   -8.1338 C.3     1  UNL1        0.1967
     31 C          18.6906   72.4172   -9.1367 C.3     1  UNL1        0.1715
     32 C          20.0172   73.0496   -8.7011 C.3     1  UNL1        0.1694
     33 C          20.2996   72.6623   -7.2474 C.3     1  UNL1        0.1761
     34 O          16.3928   72.1233   -8.4352 O.3     1  UNL1       -0.3775
     35 O          18.3375   72.8860  -10.4398 O.3     1  UNL1       -0.3794
     36 O          19.9287   74.4707   -8.8134 O.3     1  UNL1       -0.3794
     37 O          19.2618   73.1627   -6.4056 O.3     1  UNL1       -0.3258
     38 H          15.7413   72.3999   -7.7765 H       1  UNL1        0.2106
     39 H          17.4946   72.4734  -10.6668 H       1  UNL1        0.2105
     40 H          19.7449   74.6672   -9.7412 H       1  UNL1        0.2105
     41 C          21.6394   73.2606   -6.8129 C.3     1  UNL1        0.1693
     42 O          22.7055   72.5403   -7.4338 O.3     1  UNL1       -0.3794
     43 H          23.5300   72.9482   -7.1354 H       1  UNL1        0.2105
@<TRIPOS>BOND
     1    15    16   ar
     2    15    20   ar
     3    15     6    1
     4    16    17   ar
     5    16    21    2
     6    17    18   ar
     7    17    23    1
     8    18    19   ar
     9    18    22    2
    10    19    20   ar
    11     6     7    1
    12     6    11    1
    13     7     8    1
    14     7     9    1
    15     8    13    1
    16     9    10    1
    17     9    12    1
    18    10    11    1
    19    10     5    1
    20    12    14    1
    21     5     4    1
    22     4     1    1
    23     1     2    2
    24     1     3    1
    25     1    24    1
    26    24    25    1
    27    25    26    2
    28    25    27    1
    29    25    28    1
    30    28    29    1
    31    29    30    1
    32    29    37    1
    33    30    31    1
    34    30    34    1
    35    31    32    1
    36    31    35    1
    37    32    33    1
    38    32    36    1
    39    33    41    1
    40    33    37    1
    41    41    42    1
    42    34    38    1
    43    35    39    1
    44    36    40    1
    45    42    43    1
@<TRIPOS>MOLECULE
GDU
 43 45 0 0 0
SMALL
GASTEIGER

@<TRIPOS>ATOM
      1 P          21.4143   72.8526   -6.5900 P.3     1  UNL1        0.2189
      2 O          22.8188   73.1086   -6.9794 O.2     1  UNL1       -0.5170
      3 O          20.5864   74.2332   -6.6299 O.3     1  UNL1       -0.4371
      4 O          20.7558   71.8023   -7.6147 O.3     1  UNL1       -0.3112
      5 C          19.5984   71.2666   -6.9714 C.3     1  UNL1        0.1811
      6 C          16.6401   72.9454   -8.1366 C.3     1  UNL1        0.2383
      7 C          17.7810   73.5071   -9.0231 C.3     1  UNL1        0.1895
      8 O          17.2943   73.8533  -10.3217 O.3     1  UNL1       -0.3779
      9 C          18.7553   72.3029   -9.1004 C.3     1  UNL1        0.1713
     10 C          18.3809   71.4398   -7.8813 C.3     1  UNL1        0.1764
     11 O          17.3350   72.1264   -7.1723 O.3     1  UNL1       -0.3308
     12 O          18.5572   71.5773  -10.3154 O.3     1  UNL1       -0.3794
     13 H          18.0495   74.1948  -10.8206 H       1  UNL1        0.2106
     14 H          18.7499   72.1871  -11.0404 H       1  UNL1        0.2105
     15 N          15.9210   74.0312   -7.4683 N.ar    1  UNL1       -0.2551
     16 C          14.7869   74.5115   -8.0083 C.ar    1  UNL1        0.3323
     17 N          14.1047   75.5070   -7.4122 N.ar    1  UNL1       -0.2743
     18 C          14.5553   76.0475   -6.2637 C.ar    1  UNL1        0.2626
     19 C          15.7516   75.5556   -5.6864 C.ar    1  UNL1        0.0795
     20 C          16.4138   74.5537   -6.3029 C.ar    1  UNL1        0.0869
     21 O          14.3678   74.0336   -9.0437 O.2     1  UNL1       -0.2464
     22 O          13.9410   76.9519   -5.7259 O.2     1  UNL1       -0.2670
     23 H          13.2857   75.8384   -7.8137 H       1  UNL1        0.1734
     24 O          21.3737   72.2470   -5.0987 O.3     1  UNL1       -0.2703
     25 P          22.3204   73.1791   -4.1906 P.3     1  UNL1        0.2208
     26 O          23.7192   72.7075   -4.2909 O.2     1  UNL1       -0.5170
     27 O          22.2296   74.7017   -4.7081 O.3     1  UNL1       -0.4371
     28 O          21.8367   73.1050   -2.6574 O.3     1  UNL1       -0.2858
     29 C          22.9265   72.5718   -1.9038 C.3     1  UNL1        0.2704
     30 C          22.6126   71.1287   -1.5061 C.3     1  UNL1        0.1967
     31 C          21.3227   71.1085   -0.6801 C.3     1  UNL1        0.1715
     32 C          21.4736   72.0890    0.4884 C.3     1  UNL1        0.1694
     33 C          21.8722   73.4609   -0.0614 C.3     1  UNL1        0.1761
     34 O          22.4426   70.3345   -2.6814 O.3     1  UNL1       -0.3775
     35 O          21.0951   69.7902   -0.1774 O.3     1  UNL1       -0.3794
     36 O          22.4820   71.6157    1.3822 O.3     1  UNL1       -0.3794
     37 O          23.1262   73.3636   -0.7351 O.3     1  UNL1       -0.3258
     38 H          23.2740   70.3819   -3.1728 H       1  UNL1        0.2106
     39 H          21.0187   69.2077   -0.9437 H       1  UNL1        0.2105
     40 H          22.1922   70.7499    1.6979 H       1  UNL1        0.2105
     41 C          21.9922   74.4564    1.0947 C.3     1  UNL1        0.1693
     42 O          21.0935   74.0817    2.1401 O.3     1  UNL1       -0.3794
     43 H          21.2004   74.7322    2.8477 H       1  UNL1        0.2105
@<TRIPOS>BOND
     1    15    16   ar
     2    15    20   ar
     3    15     6    1
     4    16    17   ar
     5    16    21    2
     6    17    18   ar
     7    17    23    1
     8    18    19   ar
     9    18    22    2
    10    19    20   ar
    11     6     7    1
    12     6    11    1
    13     7     8    1
    14     7     9    1
    15     8    13    1
    16     9    10    1
    17     9    12    1
    18    10    11    1
    19    10     5    1
    20    12    14    1
    21     5     4    1
    22     4     1    1
    23     1     2    2
    24     1     3    1
    25     1    24    1
    26    24    25    1
    27    25    26    2
    28    25    27    1
    29    25    28    1
    30    28    29    1
    31    29    30    1
    32    29    37    1
    33    30    31    1
    34    30    34    1
    35    31    32    1
    36    31    35    1
    37    32    33    1
    38    32    36    1
    39    33    41    1
    40    33    37    1
    41    41    42    1
    42    34    38    1
    43    35    39    1
    44    36    40    1
    45    42    43    1
@<TRIPOS>MOLECULE
GDU
 43 45 0 0 0
SMALL
GASTEIGER

@<TRIPOS>ATOM
      1 P          22.5717   73.2703   -4.9168 P.3     1  UNL1        0.2189
      2 O          22.9450   74.6937   -5.0717 O.2     1  UNL1       -0.5170
      3 O          23.7725   72.4762   -4.1953 O.3     1  UNL1       -0.4371
      4 O          21.2402   73.1586   -4.0214 O.3     1  UNL1       -0.3112
      5 C          21.5254   73.7950   -2.7748 C.3     1  UNL1        0.1811
      6 C          22.2246   72.2066    0.3741 C.3     1  UNL1        0.2383
      7 C          21.1878   71.2780   -0.3084 C.3     1  UNL1        0.1895
      8 O          21.3853   69.9178    0.0839 O.3     1  UNL1       -0.3779
      9 C          21.5164   71.4735   -1.8114 C.3     1  UNL1        0.1713
     10 C          22.2652   72.8183   -1.8590 C.3     1  UNL1        0.1764
     11 O          22.3025   73.3381   -0.5186 O.3     1  UNL1       -0.3308
     12 O          22.3493   70.4124   -2.2828 O.3     1  UNL1       -0.3794
     13 H          20.7116   69.3951   -0.3729 H       1  UNL1        0.2106
     14 H          21.8483   69.5929   -2.1726 H       1  UNL1        0.2105
     15 N          21.7548   72.6240    1.6962 N.ar    1  UNL1       -0.2551
     16 C          22.1395   71.9389    2.7875 C.ar    1  UNL1        0.3323
     17 N          21.7248   72.3040    4.0149 N.ar    1  UNL1       -0.2743
     18 C          20.9051   73.3616    4.1691 C.ar    1  UNL1        0.2626
     19 C          20.4870   74.0891    3.0280 C.ar    1  UNL1        0.0795
     20 C          20.9213   73.7041    1.8091 C.ar    1  UNL1        0.0869
     21 O          22.8792   70.9830    2.6642 O.2     1  UNL1       -0.2464
     22 O          20.5253   73.6899    5.2793 O.2     1  UNL1       -0.2670
     23 H          22.0158   71.8007    4.7920 H       1  UNL1        0.1734
     24 O          22.3000   72.6268   -6.3675 O.3     1  UNL1       -0.2703
     25 P          21.1518   73.5138   -7.0638 P.3     1  UNL1        0.2208
     26 O          21.2852   74.9219   -6.6295 O.2     1  UNL1       -0.5170
     27 O          21.3060   73.4297   -8.6649 O.3     1  UNL1       -0.4371
     28 O          19.7053   72.9537   -6.6351 O.3     1  UNL1       -0.2858
     29 C          19.4924   71.7482   -7.3708 C.3     1  UNL1        0.2704
     30 C          18.2662   71.9108   -8.2706 C.3     1  UNL1        0.1967
     31 C          17.0484   72.2353   -7.4000 C.3     1  UNL1        0.1715
     32 C          16.9225   71.1613   -6.3136 C.3     1  UNL1        0.1694
     33 C          18.2510   71.0570   -5.5604 C.3     1  UNL1        0.1761
     34 O          18.4907   72.9743   -9.1979 O.3     1  UNL1       -0.3775
     35 O          15.8696   72.2450   -8.2079 O.3     1  UNL1       -0.3794
     36 O          16.6101   69.9052   -6.9174 O.3     1  UNL1       -0.3794
     37 O          19.2864   70.6691   -6.4622 O.3     1  UNL1       -0.3258
     38 H          19.2684   72.7311   -9.7183 H       1  UNL1        0.2106
     39 H          15.9978   72.9243   -8.8820 H       1  UNL1        0.2105
     40 H          15.7718   70.0196   -7.3837 H       1  UNL1        0.2105
     41 C          18.1252   70.0110   -4.4504 C.3     1  UNL1        0.1693
     42 O          16.7445   69.7250   -4.2208 O.3     1  UNL1       -0.3794
     43 H          16.7091   69.0629   -3.5168 H       1  UNL1        0.2105
@<TRIPOS>BOND
     1    15    16   ar
     2    15    20   ar
     3    15     6    1
     4    16    17   ar
     5    16    21    2
     6    17    18   ar
     7    17    23    1
     8    18    19   ar
     9    18    22    2
    10    19    20   ar
    11     6     7    1
    12     6    11    1
    13     7     8    1
    14     7     9    1
    15     8    13    1
    16     9    10    1
    17     9    12    1
    18    10    11    1
    19    10     5    1
    20    12    14    1
    21     5     4    1
    22     4     1    1
    23     1     2    2
    24     1     3    1
    25     1    24    1
    26    24    25    1
    27    25    26    2
    28    25    27    1
    29    25    28    1
    30    28    29    1
    31    29    30    1
    32    29    37    1
    33    30    31    1
    34    30    34    1
    35    31    32    1
    36    31    35    1
    37    32    33    1
    38    32    36    1
    39    33    41    1
    40    33    37    1
    41    41    42    1
    42    34    38    1
    43    35    39    1
    44    36    40    1
    45    42    43    1
