@<TRIPOS>MOLECULE
GDU
 43 45 0 0 0
SMALL
GASTEIGER

@<TRIPOS>ATOM
      1 P          21.0410   70.8857   -3.3916 P.3     1  UNL1        0.2189
      2 O          21.6080   70.6241   -2.0502 O.2     1  UNL1       -0.5170
      3 O          20.5609   69.4975   -4.0513 O.3     1  UNL1       -0.4371
      4 O          19.7835   71.8798   -3.2586 O.3     1  UNL1       -0.3112
      5 C          18.7585   71.1606   -2.5712 C.3     1  UNL1        0.1811
      6 C          17.0641   70.6379   -5.6990 C.3     1  UNL1        0.2383
      7 C          17.1066   69.2353   -5.0404 C.3     1  UNL1        0.1895
      8 O          15.9713   68.4567   -5.4252 O.3     1  UNL1       -0.3779
      9 C          17.0520   69.5838   -3.5301 C.3     1  UNL1        0.1713
     10 C          17.5234   71.0485   -3.4668 C.3     1  UNL1        0.1764
     11 O          17.8533   71.4531   -4.8068 O.3     1  UNL1       -0.3308
     12 O          15.7169   69.4591   -3.0365 O.3     1  UNL1       -0.3794
     13 H          16.0581   67.6002   -4.9840 H       1  UNL1        0.2106
     14 H          15.4587   68.5353   -3.1575 H       1  UNL1        0.2105
     15 N          17.6659   70.6022   -7.0330 N.ar    1  UNL1       -0.2551
     16 C          16.8806   70.4595   -8.1152 C.ar    1  UNL1        0.3323
     17 N          17.4082   70.4271   -9.3531 N.ar    1  UNL1       -0.2743
     18 C          18.7400   70.5279   -9.5274 C.ar    1  UNL1        0.2626
     19 C          19.5801   70.6729   -8.3963 C.ar    1  UNL1        0.0795
     20 C          19.0243   70.7066   -7.1664 C.ar    1  UNL1        0.0869
     21 O          15.6774   70.3678   -7.9737 O.2     1  UNL1       -0.2464
     22 O          19.2190   70.4939  -10.6472 O.2     1  UNL1       -0.2670
     23 H          16.8261   70.3278  -10.1232 H       1  UNL1        0.1734
     24 O          22.1647   71.5619   -4.3257 O.3     1  UNL1       -0.2703
     25 P          23.3558   72.0368   -3.3533 P.3     1  UNL1        0.2208
     26 O          24.1389   70.8583   -2.9208 O.2     1  UNL1       -0.5170
     27 O          24.3177   73.0591   -4.1431 O.3     1  UNL1       -0.4371
     28 O          22.7358   72.7731   -2.0635 O.3     1  UNL1       -0.2858
     29 C          23.8363   73.1824   -1.2504 C.3     1  UNL1        0.2704
     30 C          23.7054   72.5535    0.1377 C.3     1  UNL1        0.1967
     31 C          22.3780   72.9950    0.7619 C.3     1  UNL1        0.1715
     32 C          22.3067   74.5258    0.7300 C.3     1  UNL1        0.1694
     33 C          22.5419   75.0053   -0.7045 C.3     1  UNL1        0.1761
     34 O          23.7318   71.1297    0.0224 O.3     1  UNL1       -0.3775
     35 O          22.3073   72.5367    2.1137 O.3     1  UNL1       -0.3794
     36 O          23.3087   75.0689    1.5908 O.3     1  UNL1       -0.3794
     37 O          23.8402   74.6038   -1.1395 O.3     1  UNL1       -0.3258
     38 H          24.5795   70.8981   -0.3807 H       1  UNL1        0.2106
     39 H          22.3678   71.5734    2.0862 H       1  UNL1        0.2105
     40 H          23.1247   74.7366    2.4791 H       1  UNL1        0.2105
     41 C          22.4386   76.5314   -0.7537 C.3     1  UNL1        0.1693
     42 O          21.1548   76.9051   -1.2569 O.3     1  UNL1       -0.3794
     43 H          21.1304   77.8718   -1.2712 H       1  UNL1        0.2105
@<TRIPOS>BOND
     1    15    16   ar
     2    15    20   ar
     3    15     6    1
     4    16    17   ar
     5    16    21    2
     6    17    18   ar
     7    17    23    1
     8    18    19   ar
     9    18    22    2
    10    19    20   ar
    11     6     7    1
    12     6    11    1
    13     7     8    1
    14     7     9    1
    15     8    13    1
    16     9    10    1
    17     9    12    1
    18    10    11    1
    19    10     5    1
    20    12    14    1
    21     5     4    1
    22     4     1    1
    23     1     2    2
    24     1     3    1
    25     1    24    1
    26    24    25    1
    27    25    26    2
    28    25    27    1
    29    25    28    1
    30    28    29    1
    31    29    30    1
    32    29    37    1
    33    30    31    1
    34    30    34    1
    35    31    32    1
    36    31    35    1
    37    32    33    1
    38    32    36    1
    39    33    41    1
    40    33    37    1
    41    41    42    1
    42    34    38    1
    43    35    39    1
    44    36    40    1
    45    42    43    1
@<TRIPOS>MOLECULE
GDU
 43 45 0 0 0
SMALL
GASTEIGER

@<TRIPOS>ATOM
      1 P          20.3385   71.2173   -1.7214 P.3     1  UNL1        0.2189
      2 O          20.2359   72.6881   -1.5961 O.2     1  UNL1       -0.5170
      3 O          20.8980   70.5991   -0.3438 O.3     1  UNL1       -0.4371
      4 O          18.8856   70.6024   -2.0345 O.3     1  UNL1       -0.3112
      5 C          18.0651   71.6845   -2.4776 C.3     1  UNL1        0.1811
      6 C          16.8373   70.4862   -5.6374 C.3     1  UNL1        0.2383
      7 C          17.2376   69.2039   -4.8639 C.3     1  UNL1        0.1895
      8 O          16.4112   68.1009   -5.2430 O.3     1  UNL1       -0.3779
      9 C          16.9703   69.6152   -3.3926 C.3     1  UNL1        0.1713
     10 C          16.9874   71.1547   -3.4254 C.3     1  UNL1        0.1764
     11 O          17.2848   71.5535   -4.7747 O.3     1  UNL1       -0.3308
     12 O          15.6964   69.1315   -2.9621 O.3     1  UNL1       -0.3794
     13 H          16.7108   67.3383   -4.7285 H       1  UNL1        0.2106
     14 H          15.7290   68.1669   -3.0199 H       1  UNL1        0.2105
     15 N          17.5218   70.5464   -6.9299 N.ar    1  UNL1       -0.2551
     16 C          16.8060   70.4895   -8.0669 C.ar    1  UNL1        0.3323
     17 N          17.4105   70.5463   -9.2682 N.ar    1  UNL1       -0.2743
     18 C          18.7508   70.6517   -9.3506 C.ar    1  UNL1        0.2626
     19 C          19.5181   70.7069   -8.1613 C.ar    1  UNL1        0.0795
     20 C          18.8861   70.6522   -6.9697 C.ar    1  UNL1        0.0869
     21 O          15.5962   70.3948   -8.0084 O.2     1  UNL1       -0.2464
     22 O          19.2993   70.6984  -10.4376 O.2     1  UNL1       -0.2670
     23 H          16.8779   70.5082  -10.0785 H       1  UNL1        0.1734
     24 O          21.3476   70.8510   -2.9214 O.3     1  UNL1       -0.2703
     25 P          22.5093   71.9647   -2.9105 P.3     1  UNL1        0.2208
     26 O          22.6600   72.5067   -1.5420 O.2     1  UNL1       -0.5170
     27 O          23.8979   71.2959   -3.3781 O.3     1  UNL1       -0.4371
     28 O          22.1218   73.1558   -3.9209 O.3     1  UNL1       -0.2858
     29 C          21.2950   72.5860   -4.9365 C.3     1  UNL1        0.2704
     30 C          21.9113   72.8618   -6.3089 C.3     1  UNL1        0.1967
     31 C          22.0400   74.3758   -6.5026 C.3     1  UNL1        0.1715
     32 C          20.6695   75.0189   -6.2619 C.3     1  UNL1        0.1694
     33 C          20.1480   74.5807   -4.8911 C.3     1  UNL1        0.1761
     34 O          23.2033   72.2566   -6.3837 O.3     1  UNL1       -0.3775
     35 O          22.4762   74.6541   -7.8348 O.3     1  UNL1       -0.3794
     36 O          19.7599   74.6006   -7.2805 O.3     1  UNL1       -0.3794
     37 O          19.9930   73.1625   -4.8658 O.3     1  UNL1       -0.3258
     38 H          23.0752   71.3077   -6.2495 H       1  UNL1        0.2106
     39 H          23.3326   74.2220   -7.9448 H       1  UNL1        0.2105
     40 H          20.1307   74.8920   -8.1237 H       1  UNL1        0.2105
     41 C          18.7950   75.2448   -4.6260 C.3     1  UNL1        0.1693
     42 O          19.0032   76.5820   -4.1683 O.3     1  UNL1       -0.3794
     43 H          18.1284   76.9644   -4.0139 H       1  UNL1        0.2105
@<TRIPOS>BOND
     1    15    16   ar
     2    15    20   ar
     3    15     6    1
     4    16    17   ar
     5    16    21    2
     6    17    18   ar
     7    17    23    1
     8    18    19   ar
     9    18    22    2
    10    19    20   ar
    11     6     7    1
    12     6    11    1
    13     7     8    1
    14     7     9    1
    15     8    13    1
    16     9    10    1
    17     9    12    1
    18    10    11    1
    19    10     5    1
    20    12    14    1
    21     5     4    1
    22     4     1    1
    23     1     2    2
    24     1     3    1
    25     1    24    1
    26    24    25    1
    27    25    26    2
    28    25    27    1
    29    25    28    1
    30    28    29    1
    31    29    30    1
    32    29    37    1
    33    30    31    1
    34    30    34    1
    35    31    32    1
    36    31    35    1
    37    32    33    1
    38    32    36    1
    39    33    41    1
    40    33    37    1
    41    41    42    1
    42    34    38    1
    43    35    39    1
    44    36    40    1
    45    42    43    1
@<TRIPOS>MOLECULE
GDU
 43 45 0 0 0
SMALL
GASTEIGER

@<TRIPOS>ATOM
      1 P          20.6935   71.1350   -3.1686 P.3     1  UNL1        0.2189
      2 O          21.1656   71.0321   -4.5672 O.2     1  UNL1       -0.5170
      3 O          20.2864   72.6602   -2.8506 O.3     1  UNL1       -0.4371
      4 O          19.4132   70.1837   -2.9625 O.3     1  UNL1       -0.3112
      5 C          18.3453   71.0189   -2.5124 C.3     1  UNL1        0.1811
      6 C          16.8591   70.5796   -5.7567 C.3     1  UNL1        0.2383
      7 C          16.8884   69.1551   -5.1461 C.3     1  UNL1        0.1895
      8 O          15.7949   68.3710   -5.6283 O.3     1  UNL1       -0.3779
      9 C          16.7333   69.4479   -3.6310 C.3     1  UNL1        0.1713
     10 C          17.1706   70.9175   -3.4871 C.3     1  UNL1        0.1764
     11 O          17.5750   71.3759   -4.7888 O.3     1  UNL1       -0.3308
     12 O          15.3728   69.2819   -3.2268 O.3     1  UNL1       -0.3794
     13 H          15.8711   67.5007   -5.2126 H       1  UNL1        0.2106
     14 H          15.1410   68.3586   -3.3958 H       1  UNL1        0.2105
     15 N          17.5430   70.6026   -7.0508 N.ar    1  UNL1       -0.2551
     16 C          16.8276   70.5036   -8.1850 C.ar    1  UNL1        0.3323
     17 N          17.4316   70.5257   -9.3878 N.ar    1  UNL1       -0.2743
     18 C          18.7711   70.6380   -9.4740 C.ar    1  UNL1        0.2626
     19 C          19.5381   70.7373   -8.2874 C.ar    1  UNL1        0.0795
     20 C          18.9066   70.7169   -7.0944 C.ar    1  UNL1        0.0869
     21 O          15.6185   70.4023   -8.1231 O.2     1  UNL1       -0.2464
     22 O          19.3192   70.6533  -10.5621 O.2     1  UNL1       -0.2670
     23 H          16.8993   70.4575  -10.1963 H       1  UNL1        0.1734
     24 O          21.8709   70.6761   -2.1707 O.3     1  UNL1       -0.2703
     25 P          23.1182   71.6572   -2.4383 P.3     1  UNL1        0.2208
     26 O          24.2485   70.8783   -2.9905 O.2     1  UNL1       -0.5170
     27 O          22.6876   72.7974   -3.4913 O.3     1  UNL1       -0.4371
     28 O          23.5659   72.3474   -1.0551 O.3     1  UNL1       -0.2858
     29 C          22.7402   71.7946   -0.0292 C.3     1  UNL1        0.2704
     30 C          22.0032   72.9227    0.6944 C.3     1  UNL1        0.1967
     31 C          23.0320   73.8887    1.2900 C.3     1  UNL1        0.1715
     32 C          24.0115   73.0887    2.1561 C.3     1  UNL1        0.1694
     33 C          24.5981   71.9484    1.3203 C.3     1  UNL1        0.1761
     34 O          21.1690   73.6208   -0.2319 O.3     1  UNL1       -0.3775
     35 O          22.3651   74.8655    2.0924 O.3     1  UNL1       -0.3794
     36 O          23.3222   72.5533    3.2867 O.3     1  UNL1       -0.3794
     37 O          23.5523   71.0754    0.8959 O.3     1  UNL1       -0.3258
     38 H          20.5436   72.9741   -0.5863 H       1  UNL1        0.2106
     39 H          21.7531   75.3345    1.5112 H       1  UNL1        0.2105
     40 H          22.9658   73.3044    3.7787 H       1  UNL1        0.2105
     41 C          25.6037   71.1637    2.1659 C.3     1  UNL1        0.1693
     42 O          24.9653   70.0091    2.7141 O.3     1  UNL1       -0.3794
     43 H          25.6315   69.5432    3.2379 H       1  UNL1        0.2105
@<TRIPOS>BOND
     1    15    16   ar
     2    15    20   ar
     3    15     6    1
     4    16    17   ar
     5    16    21    2
     6    17    18   ar
     7    17    23    1
     8    18    19   ar
     9    18    22    2
    10    19    20   ar
    11     6     7    1
    12     6    11    1
    13     7     8    1
    14     7     9    1
    15     8    13    1
    16     9    10    1
    17     9    12    1
    18    10    11    1
    19    10     5    1
    20    12    14    1
    21     5     4    1
    22     4     1    1
    23     1     2    2
    24     1     3    1
    25     1    24    1
    26    24    25    1
    27    25    26    2
    28    25    27    1
    29    25    28    1
    30    28    29    1
    31    29    30    1
    32    29    37    1
    33    30    31    1
    34    30    34    1
    35    31    32    1
    36    31    35    1
    37    32    33    1
    38    32    36    1
    39    33    41    1
    40    33    37    1
    41    41    42    1
    42    34    38    1
    43    35    39    1
    44    36    40    1
    45    42    43    1
@<TRIPOS>MOLECULE
GDU
 43 45 0 0 0
SMALL
GASTEIGER

@<TRIPOS>ATOM
      1 P          20.8853   71.8351   -1.9020 P.3     1  UNL1        0.2189
      2 O          21.5503   70.6201   -2.4229 O.2     1  UNL1       -0.5170
      3 O          21.8215   73.1170   -2.1726 O.3     1  UNL1       -0.4371
      4 O          19.4733   72.0352   -2.6457 O.3     1  UNL1       -0.3112
      5 C          18.7124   70.8484   -2.4151 C.3     1  UNL1        0.1811
      6 C          17.0453   70.5775   -5.5892 C.3     1  UNL1        0.2383
      7 C          17.0198   69.1389   -5.0122 C.3     1  UNL1        0.1895
      8 O          15.8592   68.4321   -5.4558 O.3     1  UNL1       -0.3779
      9 C          16.9569   69.4024   -3.4852 C.3     1  UNL1        0.1713
     10 C          17.4874   70.8399   -3.3313 C.3     1  UNL1        0.1764
     11 O          17.8540   71.3063   -4.6414 O.3     1  UNL1       -0.3308
     12 O          15.6104   69.3060   -3.0166 O.3     1  UNL1       -0.3794
     13 H          15.9038   67.5489   -5.0637 H       1  UNL1        0.2106
     14 H          15.3161   68.4024   -3.1939 H       1  UNL1        0.2105
     15 N          17.6651   70.5928   -6.9152 N.ar    1  UNL1       -0.2551
     16 C          16.8973   70.4637   -8.0117 C.ar    1  UNL1        0.3323
     17 N          17.4417   70.4781   -9.2427 N.ar    1  UNL1       -0.2743
     18 C          18.7731   70.6128   -9.3958 C.ar    1  UNL1        0.2626
     19 C          19.5949   70.7440   -8.2496 C.ar    1  UNL1        0.0795
     20 C          19.0225   70.7306   -7.0271 C.ar    1  UNL1        0.0869
     21 O          15.6947   70.3418   -7.8894 O.2     1  UNL1       -0.2464
     22 O          19.2673   70.6212  -10.5095 O.2     1  UNL1       -0.2670
     23 H          16.8721   70.3880  -10.0231 H       1  UNL1        0.1734
     24 O          20.6415   71.6751   -0.3185 O.3     1  UNL1       -0.2703
     25 P          22.0480   71.2356    0.3282 P.3     1  UNL1        0.2208
     26 O          21.8583   70.0096    1.1345 O.2     1  UNL1       -0.5170
     27 O          23.1112   70.9456   -0.8464 O.3     1  UNL1       -0.4371
     28 O          22.5999   72.4183    1.2698 O.3     1  UNL1       -0.2858
     29 C          22.6906   71.8875    2.5926 C.3     1  UNL1        0.2704
     30 C          21.6174   72.5292    3.4734 C.3     1  UNL1        0.1967
     31 C          21.8234   74.0471    3.4844 C.3     1  UNL1        0.1715
     32 C          23.2694   74.3423    3.8985 C.3     1  UNL1        0.1694
     33 C          24.2180   73.5640    2.9835 C.3     1  UNL1        0.1761
     34 O          20.3234   72.2241    2.9501 O.3     1  UNL1       -0.3775
     35 O          20.9222   74.6472    4.4172 O.3     1  UNL1       -0.3794
     36 O          23.4695   73.9410    5.2546 O.3     1  UNL1       -0.3794
     37 O          23.9835   72.1638    3.1261 O.3     1  UNL1       -0.3258
     38 H          20.2405   71.2608    2.9551 H       1  UNL1        0.2106
     39 H          20.0288   74.4262    4.1251 H       1  UNL1        0.2105
     40 H          22.8492   74.4510    5.7918 H       1  UNL1        0.2105
     41 C          25.6659   73.8786    3.3666 C.3     1  UNL1        0.1693
     42 O          26.5308   72.8854    2.8129 O.3     1  UNL1       -0.3794
     43 H          27.4312   73.1202    3.0762 H       1  UNL1        0.2105
@<TRIPOS>BOND
     1    15    16   ar
     2    15    20   ar
     3    15     6    1
     4    16    17   ar
     5    16    21    2
     6    17    18   ar
     7    17    23    1
     8    18    19   ar
     9    18    22    2
    10    19    20   ar
    11     6     7    1
    12     6    11    1
    13     7     8    1
    14     7     9    1
    15     8    13    1
    16     9    10    1
    17     9    12    1
    18    10    11    1
    19    10     5    1
    20    12    14    1
    21     5     4    1
    22     4     1    1
    23     1     2    2
    24     1     3    1
    25     1    24    1
    26    24    25    1
    27    25    26    2
    28    25    27    1
    29    25    28    1
    30    28    29    1
    31    29    30    1
    32    29    37    1
    33    30    31    1
    34    30    34    1
    35    31    32    1
    36    31    35    1
    37    32    33    1
    38    32    36    1
    39    33    41    1
    40    33    37    1
    41    41    42    1
    42    34    38    1
    43    35    39    1
    44    36    40    1
    45    42    43    1
@<TRIPOS>MOLECULE
GDU
 43 45 0 0 0
SMALL
GASTEIGER

@<TRIPOS>ATOM
      1 P          23.0784   71.6758   -2.6530 P.3     1  UNL1        0.2189
      2 O          24.2594   70.9181   -3.1228 O.2     1  UNL1       -0.5170
      3 O          23.5342   73.1515   -2.1975 O.3     1  UNL1       -0.4371
      4 O          22.0045   71.7899   -3.8449 O.3     1  UNL1       -0.3112
      5 C          22.6566   72.4567   -4.9269 C.3     1  UNL1        0.1811
      6 C          19.7010   71.5435   -6.7595 C.3     1  UNL1        0.2383
      7 C          19.4408   73.0019   -6.3032 C.3     1  UNL1        0.1895
      8 O          18.6161   73.6915   -7.2453 O.3     1  UNL1       -0.3779
      9 C          20.8731   73.5964   -6.2827 C.3     1  UNL1        0.1713
     10 C          21.7891   72.3624   -6.1834 C.3     1  UNL1        0.1764
     11 O          20.9423   71.2026   -6.1064 O.3     1  UNL1       -0.3308
     12 O          21.1298   74.3227   -7.4863 O.3     1  UNL1       -0.3794
     13 H          18.4926   74.5882   -6.9039 H       1  UNL1        0.2106
     14 H          20.4880   75.0450   -7.5198 H       1  UNL1        0.2105
     15 N          18.6230   70.6604   -6.3114 N.ar    1  UNL1       -0.2551
     16 C          17.6387   70.3241   -7.1637 C.ar    1  UNL1        0.3323
     17 N          16.6378   69.5110   -6.7779 N.ar    1  UNL1       -0.2743
     18 C          16.6010   69.0266   -5.5216 C.ar    1  UNL1        0.2626
     19 C          17.6279   69.3771   -4.6112 C.ar    1  UNL1        0.0795
     20 C          18.6222   70.1908   -5.0254 C.ar    1  UNL1        0.0869
     21 O          17.6587   70.7528   -8.3003 O.2     1  UNL1       -0.2464
     22 O          15.6928   68.2944   -5.1701 O.2     1  UNL1       -0.2670
     23 H          15.9380   69.2752   -7.4076 H       1  UNL1        0.1734
     24 O          22.4141   70.9107   -1.4018 O.3     1  UNL1       -0.2703
     25 P          20.9819   71.5972   -1.1419 P.3     1  UNL1        0.2208
     26 O          20.8407   72.7871   -2.0100 O.2     1  UNL1       -0.5170
     27 O          19.8123   70.5435   -1.4823 O.3     1  UNL1       -0.4371
     28 O          20.8702   72.0410    0.4010 O.3     1  UNL1       -0.2858
     29 C          22.0331   72.8163    0.6949 C.3     1  UNL1        0.2704
     30 C          22.6791   72.2978    1.9807 C.3     1  UNL1        0.1967
     31 C          21.6628   72.3929    3.1228 C.3     1  UNL1        0.1715
     32 C          21.1359   73.8307    3.1914 C.3     1  UNL1        0.1694
     33 C          20.6047   74.2325    1.8132 C.3     1  UNL1        0.1761
     34 O          23.0749   70.9366    1.8022 O.3     1  UNL1       -0.3775
     35 O          22.2953   72.0513    4.3580 O.3     1  UNL1       -0.3794
     36 O          22.1941   74.7095    3.5758 O.3     1  UNL1       -0.3794
     37 O          21.6623   74.1834    0.8567 O.3     1  UNL1       -0.3258
     38 H          23.7074   70.9236    1.0710 H       1  UNL1        0.2106
     39 H          22.6206   71.1469    4.2651 H       1  UNL1        0.2105
     40 H          22.5004   74.4160    4.4438 H       1  UNL1        0.2105
     41 C          20.0446   75.6551    1.8793 C.3     1  UNL1        0.1693
     42 O          20.0172   76.2168    0.5660 O.3     1  UNL1       -0.3794
     43 H          19.6581   77.1107    0.6514 H       1  UNL1        0.2105
@<TRIPOS>BOND
     1    15    16   ar
     2    15    20   ar
     3    15     6    1
     4    16    17   ar
     5    16    21    2
     6    17    18   ar
     7    17    23    1
     8    18    19   ar
     9    18    22    2
    10    19    20   ar
    11     6     7    1
    12     6    11    1
    13     7     8    1
    14     7     9    1
    15     8    13    1
    16     9    10    1
    17     9    12    1
    18    10    11    1
    19    10     5    1
    20    12    14    1
    21     5     4    1
    22     4     1    1
    23     1     2    2
    24     1     3    1
    25     1    24    1
    26    24    25    1
    27    25    26    2
    28    25    27    1
    29    25    28    1
    30    28    29    1
    31    29    30    1
    32    29    37    1
    33    30    31    1
    34    30    34    1
    35    31    32    1
    36    31    35    1
    37    32    33    1
    38    32    36    1
    39    33    41    1
    40    33    37    1
    41    41    42    1
    42    34    38    1
    43    35    39    1
    44    36    40    1
    45    42    43    1
@<TRIPOS>MOLECULE
GDU
 43 45 0 0 0
SMALL
GASTEIGER

@<TRIPOS>ATOM
      1 P          23.5174   72.3259   -3.3243 P.3     1  UNL1        0.2189
      2 O          24.3032   73.0705   -4.3330 O.2     1  UNL1       -0.5170
      3 O          24.1869   70.8816   -3.0818 O.3     1  UNL1       -0.4371
      4 O          23.5007   73.1485   -1.9423 O.3     1  UNL1       -0.3112
      5 C          22.1416   73.1957   -1.5052 C.3     1  UNL1        0.1811
      6 C          23.3744   72.2031    1.7231 C.3     1  UNL1        0.2383
      7 C          22.7070   73.5806    1.9682 C.3     1  UNL1        0.1895
      8 O          22.1724   73.6600    3.2915 O.3     1  UNL1       -0.3779
      9 C          21.5715   73.5839    0.9118 C.3     1  UNL1        0.1713
     10 C          22.0241   72.5414   -0.1274 C.3     1  UNL1        0.1764
     11 O          23.3085   72.0470    0.2897 O.3     1  UNL1       -0.3308
     12 O          20.3320   73.1989    1.5095 O.3     1  UNL1       -0.3794
     13 H          21.7738   74.5371    3.3790 H       1  UNL1        0.2106
     14 H          20.1330   73.8563    2.1899 H       1  UNL1        0.2105
     15 N          24.7660   72.2136    2.1774 N.ar    1  UNL1       -0.2551
     16 C          25.4428   71.0562    2.2797 C.ar    1  UNL1        0.3323
     17 N          26.7242   71.0385    2.6914 N.ar    1  UNL1       -0.2743
     18 C          27.3491   72.1859    3.0188 C.ar    1  UNL1        0.2626
     19 C          26.6468   73.4121    2.9214 C.ar    1  UNL1        0.0795
     20 C          25.3638   73.4017    2.5016 C.ar    1  UNL1        0.0869
     21 O          24.8926   70.0131    1.9874 O.2     1  UNL1       -0.2464
     22 O          28.5075   72.1705    3.3961 O.2     1  UNL1       -0.2670
     23 H          27.1988   70.1944    2.7553 H       1  UNL1        0.1734
     24 O          22.0093   72.1345   -3.8546 O.3     1  UNL1       -0.2703
     25 P          21.9240   72.8576   -5.2898 P.3     1  UNL1        0.2208
     26 O          22.0831   74.3183   -5.1162 O.2     1  UNL1       -0.5170
     27 O          23.0973   72.2999   -6.2420 O.3     1  UNL1       -0.4371
     28 O          20.4955   72.5487   -5.9636 O.3     1  UNL1       -0.2858
     29 C          20.5296   71.1907   -6.4045 C.3     1  UNL1        0.2704
     30 C          20.0942   71.1199   -7.8690 C.3     1  UNL1        0.1967
     31 C          18.6802   71.6948   -7.9972 C.3     1  UNL1        0.1715
     32 C          17.7634   70.9661   -7.0082 C.3     1  UNL1        0.1694
     33 C          18.3751   71.0504   -5.6076 C.3     1  UNL1        0.1761
     34 O          20.9967   71.8807   -8.6740 O.3     1  UNL1       -0.3775
     35 O          18.2024   71.5017   -9.3302 O.3     1  UNL1       -0.3794
     36 O          17.6333   69.5977   -7.3964 O.3     1  UNL1       -0.3794
     37 O          19.6498   70.4093   -5.5996 O.3     1  UNL1       -0.3258
     38 H          21.8729   71.4890   -8.5571 H       1  UNL1        0.2106
     39 H          18.8137   71.9653   -9.9165 H       1  UNL1        0.2105
     40 H          17.2509   69.5937   -8.2836 H       1  UNL1        0.2105
     41 C          17.4500   70.3551   -4.6062 C.3     1  UNL1        0.1693
     42 O          16.1469   70.2213   -5.1763 O.3     1  UNL1       -0.3794
     43 H          15.5964   69.7790   -4.5155 H       1  UNL1        0.2105
@<TRIPOS>BOND
     1    15    16   ar
     2    15    20   ar
     3    15     6    1
     4    16    17   ar
     5    16    21    2
     6    17    18   ar
     7    17    23    1
     8    18    19   ar
     9    18    22    2
    10    19    20   ar
    11     6     7    1
    12     6    11    1
    13     7     8    1
    14     7     9    1
    15     8    13    1
    16     9    10    1
    17     9    12    1
    18    10    11    1
    19    10     5    1
    20    12    14    1
    21     5     4    1
    22     4     1    1
    23     1     2    2
    24     1     3    1
    25     1    24    1
    26    24    25    1
    27    25    26    2
    28    25    27    1
    29    25    28    1
    30    28    29    1
    31    29    30    1
    32    29    37    1
    33    30    31    1
    34    30    34    1
    35    31    32    1
    36    31    35    1
    37    32    33    1
    38    32    36    1
    39    33    41    1
    40    33    37    1
    41    41    42    1
    42    34    38    1
    43    35    39    1
    44    36    40    1
    45    42    43    1
@<TRIPOS>MOLECULE
GDU
 43 45 0 0 0
SMALL
GASTEIGER

@<TRIPOS>ATOM
      1 P          20.2451   71.8633   -1.9482 P.3     1  UNL1        0.2189
      2 O          19.5098   72.3500   -0.7599 O.2     1  UNL1       -0.5170
      3 O          21.2576   70.6906   -1.5095 O.3     1  UNL1       -0.4371
      4 O          19.2003   71.2934   -3.0300 O.3     1  UNL1       -0.3112
      5 C          17.9033   71.7338   -2.6247 C.3     1  UNL1        0.1811
      6 C          16.7672   70.5094   -5.8086 C.3     1  UNL1        0.2383
      7 C          17.1410   69.2333   -5.0119 C.3     1  UNL1        0.1895
      8 O          16.3236   68.1287   -5.4054 O.3     1  UNL1       -0.3779
      9 C          16.8310   69.6587   -3.5530 C.3     1  UNL1        0.1713
     10 C          16.8530   71.1979   -3.5993 C.3     1  UNL1        0.1764
     11 O          17.1914   71.5836   -4.9427 O.3     1  UNL1       -0.3308
     12 O          15.5437   69.1818   -3.1564 O.3     1  UNL1       -0.3794
     13 H          16.6057   67.3702   -4.8754 H       1  UNL1        0.2106
     14 H          15.5755   68.2167   -3.2044 H       1  UNL1        0.2105
     15 N          17.4901   70.5562   -7.0806 N.ar    1  UNL1       -0.2551
     16 C          16.8047   70.5540   -8.2376 C.ar    1  UNL1        0.3323
     17 N          17.4451   70.5999   -9.4207 N.ar    1  UNL1       -0.2743
     18 C          18.7907   70.6391   -9.4645 C.ar    1  UNL1        0.2626
     19 C          19.5259   70.6362   -8.2539 C.ar    1  UNL1        0.0795
     20 C          18.8585   70.5939   -7.0812 C.ar    1  UNL1        0.0869
     21 O          15.5905   70.5194   -8.2140 O.2     1  UNL1       -0.2464
     22 O          19.3713   70.6759  -10.5351 O.2     1  UNL1       -0.2670
     23 H          16.9343   70.6019  -10.2459 H       1  UNL1        0.1734
     24 O          21.0809   73.0778   -2.5955 O.3     1  UNL1       -0.2703
     25 P          21.8292   72.4897   -3.8932 P.3     1  UNL1        0.2208
     26 O          23.2754   72.3564   -3.6103 O.2     1  UNL1       -0.5170
     27 O          21.2184   71.0442   -4.2556 O.3     1  UNL1       -0.4371
     28 O          21.6145   73.4887   -5.1366 O.3     1  UNL1       -0.2858
     29 C          22.4291   74.6362   -4.8924 C.3     1  UNL1        0.2704
     30 C          21.5435   75.8802   -4.8064 C.3     1  UNL1        0.1967
     31 C          20.7716   76.0346   -6.1205 C.3     1  UNL1        0.1715
     32 C          21.7730   76.0257   -7.2810 C.3     1  UNL1        0.1694
     33 C          22.6404   74.7686   -7.1803 C.3     1  UNL1        0.1761
     34 O          20.6232   75.7387   -3.7228 O.3     1  UNL1       -0.3775
     35 O          20.0528   77.2698   -6.1128 O.3     1  UNL1       -0.3794
     36 O          22.5986   77.1889   -7.2085 O.3     1  UNL1       -0.3794
     37 O          23.3694   74.7838   -5.9538 O.3     1  UNL1       -0.3258
     38 H          21.1516   75.6374   -2.9194 H       1  UNL1        0.2106
     39 H          19.4459   77.2358   -5.3626 H       1  UNL1        0.2105
     40 H          22.0112   77.9534   -7.2699 H       1  UNL1        0.2105
     41 C          23.6214   74.7326   -8.3543 C.3     1  UNL1        0.1693
     42 O          23.6314   73.4232   -8.9256 O.3     1  UNL1       -0.3794
     43 H          24.2598   73.4432   -9.6604 H       1  UNL1        0.2105
@<TRIPOS>BOND
     1    15    16   ar
     2    15    20   ar
     3    15     6    1
     4    16    17   ar
     5    16    21    2
     6    17    18   ar
     7    17    23    1
     8    18    19   ar
     9    18    22    2
    10    19    20   ar
    11     6     7    1
    12     6    11    1
    13     7     8    1
    14     7     9    1
    15     8    13    1
    16     9    10    1
    17     9    12    1
    18    10    11    1
    19    10     5    1
    20    12    14    1
    21     5     4    1
    22     4     1    1
    23     1     2    2
    24     1     3    1
    25     1    24    1
    26    24    25    1
    27    25    26    2
    28    25    27    1
    29    25    28    1
    30    28    29    1
    31    29    30    1
    32    29    37    1
    33    30    31    1
    34    30    34    1
    35    31    32    1
    36    31    35    1
    37    32    33    1
    38    32    36    1
    39    33    41    1
    40    33    37    1
    41    41    42    1
    42    34    38    1
    43    35    39    1
    44    36    40    1
    45    42    43    1
@<TRIPOS>MOLECULE
GDU
 43 45 0 0 0
SMALL
GASTEIGER

@<TRIPOS>ATOM
      1 P          20.7802   72.0582   -0.4486 P.3     1  UNL1        0.2189
      2 O          20.1004   72.9019    0.5592 O.2     1  UNL1       -0.5170
      3 O          20.3814   70.5158   -0.2142 O.3     1  UNL1       -0.4371
      4 O          20.3259   72.5117   -1.9233 O.3     1  UNL1       -0.3112
      5 C          20.1811   71.3195   -2.6966 C.3     1  UNL1        0.1811
      6 C          17.8514   70.8346   -5.3920 C.3     1  UNL1        0.2383
      7 C          17.9222   69.4563   -4.6862 C.3     1  UNL1        0.1895
      8 O          16.6775   68.7623   -4.7967 O.3     1  UNL1       -0.3779
      9 C          18.2023   69.8587   -3.2148 C.3     1  UNL1        0.1713
     10 C          18.7847   71.2805   -3.3201 C.3     1  UNL1        0.1764
     11 O          18.8643   71.6109   -4.7175 O.3     1  UNL1       -0.3308
     12 O          16.9901   69.8622   -2.4583 O.3     1  UNL1       -0.3794
     13 H          16.7881   67.9168   -4.3397 H       1  UNL1        0.2106
     14 H          16.6445   68.9595   -2.4790 H       1  UNL1        0.2105
     15 N          18.1647   70.7040   -6.8159 N.ar    1  UNL1       -0.2551
     16 C          17.1698   70.5356   -7.7049 C.ar    1  UNL1        0.3323
     17 N          17.4305   70.4165   -9.0201 N.ar    1  UNL1       -0.2743
     18 C          18.7003   70.4545   -9.4678 C.ar    1  UNL1        0.2626
     19 C          19.7588   70.6256   -8.5423 C.ar    1  UNL1        0.0795
     20 C          19.4690   70.7468   -7.2293 C.ar    1  UNL1        0.0869
     21 O          16.0194   70.4998   -7.3160 O.2     1  UNL1       -0.2464
     22 O          18.9375   70.3420  -10.6576 O.2     1  UNL1       -0.2670
     23 H          16.6999   70.2998   -9.6480 H       1  UNL1        0.1734
     24 O          22.3746   72.2272   -0.3010 O.3     1  UNL1       -0.2703
     25 P          22.8101   71.4135    1.0174 P.3     1  UNL1        0.2208
     26 O          21.8528   70.3106    1.2547 O.2     1  UNL1       -0.5170
     27 O          24.2871   70.8058    0.8093 O.3     1  UNL1       -0.4371
     28 O          22.8128   72.4051    2.2849 O.3     1  UNL1       -0.2858
     29 C          23.5086   73.5868    1.8858 C.3     1  UNL1        0.2704
     30 C          24.6531   73.8585    2.8634 C.3     1  UNL1        0.1967
     31 C          24.0766   74.0204    4.2733 C.3     1  UNL1        0.1715
     32 C          22.9827   75.0935    4.2352 C.3     1  UNL1        0.1694
     33 C          21.9631   74.7268    3.1540 C.3     1  UNL1        0.1761
     34 O          25.5704   72.7634    2.8426 O.3     1  UNL1       -0.3775
     35 O          25.1130   74.4196    5.1728 O.3     1  UNL1       -0.3794
     36 O          23.5677   76.3618    3.9365 O.3     1  UNL1       -0.3794
     37 O          22.6047   74.6893    1.8801 O.3     1  UNL1       -0.3258
     38 H          25.9018   72.6942    1.9369 H       1  UNL1        0.2106
     39 H          25.7820   73.7236    5.1555 H       1  UNL1        0.2105
     40 H          24.2051   76.5483    4.6382 H       1  UNL1        0.2105
     41 C          20.8477   75.7743    3.1309 C.3     1  UNL1        0.1693
     42 O          19.6784   75.2377    3.7521 O.3     1  UNL1       -0.3794
     43 H          19.0015   75.9275    3.7175 H       1  UNL1        0.2105
@<TRIPOS>BOND
     1    15    16   ar
     2    15    20   ar
     3    15     6    1
     4    16    17   ar
     5    16    21    2
     6    17    18   ar
     7    17    23    1
     8    18    19   ar
     9    18    22    2
    10    19    20   ar
    11     6     7    1
    12     6    11    1
    13     7     8    1
    14     7     9    1
    15     8    13    1
    16     9    10    1
    17     9    12    1
    18    10    11    1
    19    10     5    1
    20    12    14    1
    21     5     4    1
    22     4     1    1
    23     1     2    2
    24     1     3    1
    25     1    24    1
    26    24    25    1
    27    25    26    2
    28    25    27    1
    29    25    28    1
    30    28    29    1
    31    29    30    1
    32    29    37    1
    33    30    31    1
    34    30    34    1
    35    31    32    1
    36    31    35    1
    37    32    33    1
    38    32    36    1
    39    33    41    1
    40    33    37    1
    41    41    42    1
    42    34    38    1
    43    35    39    1
    44    36    40    1
    45    42    43    1
@<TRIPOS>MOLECULE
GDU
 43 45 0 0 0
SMALL
GASTEIGER

@<TRIPOS>ATOM
      1 P          21.4149   71.1522    0.1251 P.3     1  UNL1        0.2189
      2 O          21.4876   70.0400    1.0984 O.2     1  UNL1       -0.5170
      3 O          20.7348   72.4335    0.8242 O.3     1  UNL1       -0.4371
      4 O          22.8980   71.5334   -0.3666 O.3     1  UNL1       -0.3112
      5 C          23.7959   71.1118    0.6614 C.3     1  UNL1        0.1811
      6 C          25.5214   73.1930    3.0317 C.3     1  UNL1        0.2383
      7 C          25.4621   74.0441    1.7374 C.3     1  UNL1        0.1895
      8 O          25.4041   75.4385    2.0463 O.3     1  UNL1       -0.3779
      9 C          24.1350   73.5645    1.0938 C.3     1  UNL1        0.1713
     10 C          23.8795   72.1912    1.7421 C.3     1  UNL1        0.1764
     11 O          24.9843   71.9177    2.6212 O.3     1  UNL1       -0.3308
     12 O          23.0753   74.4736    1.3976 O.3     1  UNL1       -0.3794
     13 H          25.3695   75.9099    1.2022 H       1  UNL1        0.2106
     14 H          23.3210   75.3276    1.0167 H       1  UNL1        0.2105
     15 N          26.9031   73.0466    3.4924 N.ar    1  UNL1       -0.2551
     16 C          27.4169   73.9414    4.3547 C.ar    1  UNL1        0.3323
     17 N          28.6833   73.8277    4.7966 N.ar    1  UNL1       -0.2743
     18 C          29.4634   72.8153    4.3716 C.ar    1  UNL1        0.2626
     19 C          28.9374   71.8685    3.4589 C.ar    1  UNL1        0.0795
     20 C          27.6628   72.0037    3.0350 C.ar    1  UNL1        0.0869
     21 O          26.7251   74.8598    4.7473 O.2     1  UNL1       -0.2464
     22 O          30.6113   72.7143    4.7673 O.2     1  UNL1       -0.2670
     23 H          29.0363   74.4803    5.4221 H       1  UNL1        0.1734
     24 O          20.5283   70.6995   -1.1404 O.3     1  UNL1       -0.2703
     25 P          21.0836   71.5121   -2.4138 P.3     1  UNL1        0.2208
     26 O          21.4939   72.8696   -1.9917 O.2     1  UNL1       -0.5170
     27 O          22.3522   70.7369   -3.0333 O.3     1  UNL1       -0.4371
     28 O          19.9271   71.6220   -3.5276 O.3     1  UNL1       -0.2858
     29 C          20.0855   70.5039   -4.4019 C.3     1  UNL1        0.2704
     30 C          20.3368   71.0026   -5.8258 C.3     1  UNL1        0.1967
     31 C          19.1537   71.8703   -6.2662 C.3     1  UNL1        0.1715
     32 C          17.8607   71.0698   -6.0741 C.3     1  UNL1        0.1694
     33 C          17.7963   70.5674   -4.6297 C.3     1  UNL1        0.1761
     34 O          21.5375   71.7762   -5.8571 O.3     1  UNL1       -0.3775
     35 O          19.3031   72.2225   -7.6432 O.3     1  UNL1       -0.3794
     36 O          17.8481   69.9594   -6.9724 O.3     1  UNL1       -0.3794
     37 O          18.9041   69.7065   -4.3697 O.3     1  UNL1       -0.3258
     38 H          22.2523   71.1937   -5.5664 H       1  UNL1        0.2106
     39 H          20.1319   72.7120   -7.7186 H       1  UNL1        0.2105
     40 H          17.8958   70.3222   -7.8665 H       1  UNL1        0.2105
     41 C          16.4919   69.7955   -4.4177 C.3     1  UNL1        0.1693
     42 O          16.6571   68.4499   -4.8684 O.3     1  UNL1       -0.3794
     43 H          15.8152   67.9987   -4.7169 H       1  UNL1        0.2105
@<TRIPOS>BOND
     1    15    16   ar
     2    15    20   ar
     3    15     6    1
     4    16    17   ar
     5    16    21    2
     6    17    18   ar
     7    17    23    1
     8    18    19   ar
     9    18    22    2
    10    19    20   ar
    11     6     7    1
    12     6    11    1
    13     7     8    1
    14     7     9    1
    15     8    13    1
    16     9    10    1
    17     9    12    1
    18    10    11    1
    19    10     5    1
    20    12    14    1
    21     5     4    1
    22     4     1    1
    23     1     2    2
    24     1     3    1
    25     1    24    1
    26    24    25    1
    27    25    26    2
    28    25    27    1
    29    25    28    1
    30    28    29    1
    31    29    30    1
    32    29    37    1
    33    30    31    1
    34    30    34    1
    35    31    32    1
    36    31    35    1
    37    32    33    1
    38    32    36    1
    39    33    41    1
    40    33    37    1
    41    41    42    1
    42    34    38    1
    43    35    39    1
    44    36    40    1
    45    42    43    1
@<TRIPOS>MOLECULE
GDU
 43 45 0 0 0
SMALL
GASTEIGER

@<TRIPOS>ATOM
      1 P          20.3282   72.0174   -0.5593 P.3     1  UNL1        0.2189
      2 O          20.6417   70.5855   -0.3569 O.2     1  UNL1       -0.5170
      3 O          21.5750   72.7438   -1.2740 O.3     1  UNL1       -0.4371
      4 O          19.0224   72.1553   -1.4880 O.3     1  UNL1       -0.3112
      5 C          19.1901   71.2447   -2.5757 C.3     1  UNL1        0.1811
      6 C          17.3087   70.7820   -5.6045 C.3     1  UNL1        0.2383
      7 C          17.2970   69.3899   -4.9226 C.3     1  UNL1        0.1895
      8 O          16.0970   68.6789   -5.2355 O.3     1  UNL1       -0.3779
      9 C          17.3416   69.7646   -3.4183 C.3     1  UNL1        0.1713
     10 C          17.9062   71.1973   -3.4061 C.3     1  UNL1        0.1764
     11 O          18.1919   71.5592   -4.7683 O.3     1  UNL1       -0.3308
     12 O          16.0283   69.7324   -2.8562 O.3     1  UNL1       -0.3794
     13 H          16.1525   67.8256   -4.7832 H       1  UNL1        0.2106
     14 H          15.7070   68.8251   -2.9468 H       1  UNL1        0.2105
     15 N          17.8380   70.6874   -6.9660 N.ar    1  UNL1       -0.2551
     16 C          16.9991   70.4683   -7.9939 C.ar    1  UNL1        0.3323
     17 N          17.4596   70.3807   -9.2557 N.ar    1  UNL1       -0.2743
     18 C          18.7770   70.5020   -9.5087 C.ar    1  UNL1        0.2626
     19 C          19.6731   70.7272   -8.4351 C.ar    1  UNL1        0.0795
     20 C          19.1841   70.8151   -7.1799 C.ar    1  UNL1        0.0869
     21 O          15.8081   70.3573   -7.7812 O.2     1  UNL1       -0.2464
     22 O          19.1953   70.4181  -10.6499 O.2     1  UNL1       -0.2670
     23 H          16.8394   70.2266   -9.9859 H       1  UNL1        0.1734
     24 O          20.0500   72.7115    0.8667 O.3     1  UNL1       -0.2703
     25 P          20.5416   74.2391    0.7458 P.3     1  UNL1        0.2208
     26 O          20.1077   74.7954   -0.5547 O.2     1  UNL1       -0.5170
     27 O          19.8981   75.1059    1.9412 O.3     1  UNL1       -0.4371
     28 O          22.1468   74.2971    0.8467 O.3     1  UNL1       -0.2858
     29 C          22.4902   73.9669    2.1931 C.3     1  UNL1        0.2704
     30 C          23.6182   74.8830    2.6701 C.3     1  UNL1        0.1967
     31 C          24.8269   74.7086    1.7454 C.3     1  UNL1        0.1715
     32 C          25.1811   73.2188    1.6775 C.3     1  UNL1        0.1694
     33 C          23.9339   72.4286    1.2735 C.3     1  UNL1        0.1761
     34 O          23.1786   76.2419    2.6345 O.3     1  UNL1       -0.3775
     35 O          25.9371   75.4454    2.2621 O.3     1  UNL1       -0.3794
     36 O          25.6386   72.7777    2.9566 O.3     1  UNL1       -0.3794
     37 O          22.9127   72.6066    2.2540 O.3     1  UNL1       -0.3258
     38 H          22.4144   76.3034    3.2236 H       1  UNL1        0.2106
     39 H          25.6659   76.3714    2.2983 H       1  UNL1        0.2105
     40 H          26.4189   73.3050    3.1719 H       1  UNL1        0.2105
     41 C          24.2852   70.9427    1.1694 C.3     1  UNL1        0.1693
     42 O          23.0843   70.1689    1.1720 O.3     1  UNL1       -0.3794
     43 H          23.3490   69.2412    1.1044 H       1  UNL1        0.2105
@<TRIPOS>BOND
     1    15    16   ar
     2    15    20   ar
     3    15     6    1
     4    16    17   ar
     5    16    21    2
     6    17    18   ar
     7    17    23    1
     8    18    19   ar
     9    18    22    2
    10    19    20   ar
    11     6     7    1
    12     6    11    1
    13     7     8    1
    14     7     9    1
    15     8    13    1
    16     9    10    1
    17     9    12    1
    18    10    11    1
    19    10     5    1
    20    12    14    1
    21     5     4    1
    22     4     1    1
    23     1     2    2
    24     1     3    1
    25     1    24    1
    26    24    25    1
    27    25    26    2
    28    25    27    1
    29    25    28    1
    30    28    29    1
    31    29    30    1
    32    29    37    1
    33    30    31    1
    34    30    34    1
    35    31    32    1
    36    31    35    1
    37    32    33    1
    38    32    36    1
    39    33    41    1
    40    33    37    1
    41    41    42    1
    42    34    38    1
    43    35    39    1
    44    36    40    1
    45    42    43    1
@<TRIPOS>MOLECULE
GDU
 43 45 0 0 0
SMALL
GASTEIGER

@<TRIPOS>ATOM
      1 P          22.8491   72.7594   -3.8499 P.3     1  UNL1        0.2189
      2 O          24.1779   72.5853   -4.4773 O.2     1  UNL1       -0.5170
      3 O          22.1107   71.3318   -3.7523 O.3     1  UNL1       -0.4371
      4 O          23.0283   73.3730   -2.3740 O.3     1  UNL1       -0.3112
      5 C          21.9729   72.8391   -1.5731 C.3     1  UNL1        0.1811
      6 C          23.9556   71.7923    1.2377 C.3     1  UNL1        0.2383
      7 C          22.5445   72.0427    1.8286 C.3     1  UNL1        0.1895
      8 O          22.2959   71.1779    2.9392 O.3     1  UNL1       -0.3779
      9 C          21.6235   71.6860    0.6328 C.3     1  UNL1        0.1713
     10 C          22.5425   71.8083   -0.5968 C.3     1  UNL1        0.1764
     11 O          23.8325   72.2391   -0.1293 O.3     1  UNL1       -0.3308
     12 O          21.1278   70.3523    0.7646 O.3     1  UNL1       -0.3794
     13 H          21.4065   71.3836    3.2592 H       1  UNL1        0.2106
     14 H          20.6108   70.3250    1.5811 H       1  UNL1        0.2105
     15 N          24.9626   72.5811    1.9494 N.ar    1  UNL1       -0.2551
     16 C          26.0204   71.9654    2.5065 C.ar    1  UNL1        0.3323
     17 N          26.9623   72.6678    3.1633 N.ar    1  UNL1       -0.2743
     18 C          26.8541   74.0051    3.2821 C.ar    1  UNL1        0.2626
     19 C          25.7422   74.6664    2.7053 C.ar    1  UNL1        0.0795
     20 C          24.8143   73.9384    2.0484 C.ar    1  UNL1        0.0869
     21 O          26.1319   70.7597    2.4072 O.2     1  UNL1       -0.2464
     22 O          27.7037   74.6411    3.8805 O.2     1  UNL1       -0.2670
     23 H          27.7214   72.2075    3.5555 H       1  UNL1        0.1734
     24 O          21.9614   73.7612   -4.7449 O.3     1  UNL1       -0.2703
     25 P          21.6977   73.0222   -6.1500 P.3     1  UNL1        0.2208
     26 O          21.2611   74.0160   -7.1554 O.2     1  UNL1       -0.5170
     27 O          23.0571   72.3169   -6.6485 O.3     1  UNL1       -0.4371
     28 O          20.5527   71.9066   -5.9643 O.3     1  UNL1       -0.2858
     29 C          19.2986   72.5888   -6.0024 C.3     1  UNL1        0.2704
     30 C          18.4895   72.2373   -4.7529 C.3     1  UNL1        0.1967
     31 C          18.2791   70.7207   -4.7056 C.3     1  UNL1        0.1715
     32 C          17.6581   70.2705   -6.0328 C.3     1  UNL1        0.1694
     33 C          18.5320   70.7700   -7.1860 C.3     1  UNL1        0.1761
     34 O          19.2003   72.6599   -3.5879 O.3     1  UNL1       -0.3775
     35 O          17.4022   70.3912   -3.6263 O.3     1  UNL1       -0.3794
     36 O          16.3428   70.8140   -6.1536 O.3     1  UNL1       -0.3794
     37 O          18.5811   72.1959   -7.1701 O.3     1  UNL1       -0.3258
     38 H          19.3162   73.6168   -3.6636 H       1  UNL1        0.2106
     39 H          17.8260   70.7022   -2.8164 H       1  UNL1        0.2105
     40 H          15.8315   70.4782   -5.4058 H       1  UNL1        0.2105
     41 C          17.9392   70.2965   -8.5150 C.3     1  UNL1        0.1693
     42 O          17.8209   71.4074   -9.4055 O.3     1  UNL1       -0.3794
     43 H          17.4452   71.0670  -10.2291 H       1  UNL1        0.2105
@<TRIPOS>BOND
     1    15    16   ar
     2    15    20   ar
     3    15     6    1
     4    16    17   ar
     5    16    21    2
     6    17    18   ar
     7    17    23    1
     8    18    19   ar
     9    18    22    2
    10    19    20   ar
    11     6     7    1
    12     6    11    1
    13     7     8    1
    14     7     9    1
    15     8    13    1
    16     9    10    1
    17     9    12    1
    18    10    11    1
    19    10     5    1
    20    12    14    1
    21     5     4    1
    22     4     1    1
    23     1     2    2
    24     1     3    1
    25     1    24    1
    26    24    25    1
    27    25    26    2
    28    25    27    1
    29    25    28    1
    30    28    29    1
    31    29    30    1
    32    29    37    1
    33    30    31    1
    34    30    34    1
    35    31    32    1
    36    31    35    1
    37    32    33    1
    38    32    36    1
    39    33    41    1
    40    33    37    1
    41    41    42    1
    42    34    38    1
    43    35    39    1
    44    36    40    1
    45    42    43    1
@<TRIPOS>MOLECULE
GDU
 43 45 0 0 0
SMALL
GASTEIGER

@<TRIPOS>ATOM
      1 P          14.3874   71.0453   -1.6088 P.3     1  UNL1        0.2189
      2 O          15.1047   71.7857   -0.5473 O.2     1  UNL1       -0.5170
      3 O          12.9918   71.7825   -1.9279 O.3     1  UNL1       -0.4371
      4 O          15.2899   71.0056   -2.9395 O.3     1  UNL1       -0.3112
      5 C          15.9370   69.7323   -2.9628 C.3     1  UNL1        0.1811
      6 C          18.7670   70.3798   -5.0838 C.3     1  UNL1        0.2383
      7 C          18.3740   71.7709   -4.5241 C.3     1  UNL1        0.1895
      8 O          19.5217   72.6141   -4.4016 O.3     1  UNL1       -0.3779
      9 C          17.8015   71.4097   -3.1287 C.3     1  UNL1        0.1713
     10 C          17.4273   69.9209   -3.2516 C.3     1  UNL1        0.1764
     11 O          17.7190   69.5134   -4.5996 O.3     1  UNL1       -0.3308
     12 O          18.7926   71.6014   -2.1172 O.3     1  UNL1       -0.3794
     13 H          19.2101   73.4599   -4.0502 H       1  UNL1        0.2106
     14 H          19.0276   72.5391   -2.1296 H       1  UNL1        0.2105
     15 N          18.7868   70.3971   -6.5474 N.ar    1  UNL1       -0.2551
     16 C          17.6652   70.1135   -7.2329 C.ar    1  UNL1        0.3323
     17 N          17.6556   70.1260   -8.5789 N.ar    1  UNL1       -0.2743
     18 C          18.7785   70.4148   -9.2642 C.ar    1  UNL1        0.2626
     19 C          19.9689   70.7100   -8.5555 C.ar    1  UNL1        0.0795
     20 C          19.9497   70.6946   -7.2058 C.ar    1  UNL1        0.0869
     21 O          16.6444   69.8515   -6.6284 O.2     1  UNL1       -0.2464
     22 O          18.7720   70.4217  -10.4826 O.2     1  UNL1       -0.2670
     23 H          16.8361   69.9230   -9.0573 H       1  UNL1        0.1734
     24 O          14.0970   69.5420   -1.1107 O.3     1  UNL1       -0.2703
     25 P          12.6996   69.5764   -0.3131 P.3     1  UNL1        0.2208
     26 O          12.6832   70.7382    0.6029 O.2     1  UNL1       -0.5170
     27 O          11.4854   69.7049   -1.3636 O.3     1  UNL1       -0.4371
     28 O          12.5315   68.2198    0.5361 O.3     1  UNL1       -0.2858
     29 C          12.7469   68.5588    1.9067 C.3     1  UNL1        0.2704
     30 C          13.5156   67.4301    2.5956 C.3     1  UNL1        0.1967
     31 C          12.7080   66.1337    2.4796 C.3     1  UNL1        0.1715
     32 C          11.2959   66.3859    3.0201 C.3     1  UNL1        0.1694
     33 C          10.6945   67.5934    2.2969 C.3     1  UNL1        0.1761
     34 O          14.7865   67.2622    1.9651 O.3     1  UNL1       -0.3775
     35 O          13.3402   65.1042    3.2432 O.3     1  UNL1       -0.3794
     36 O          11.3607   66.6465    4.4229 O.3     1  UNL1       -0.3794
     37 O          11.4893   68.7511    2.5501 O.3     1  UNL1       -0.3258
     38 H          15.2562   68.1024    2.0558 H       1  UNL1        0.2106
     39 H          14.2262   64.9883    2.8772 H       1  UNL1        0.2105
     40 H          11.7498   65.8642    4.8352 H       1  UNL1        0.2105
     41 C           9.2710   67.8330    2.8050 C.3     1  UNL1        0.1693
     42 O           8.7424   66.6144    3.3310 O.3     1  UNL1       -0.3794
     43 H           7.8469   66.8083    3.6403 H       1  UNL1        0.2105
@<TRIPOS>BOND
     1    15    16   ar
     2    15    20   ar
     3    15     6    1
     4    16    17   ar
     5    16    21    2
     6    17    18   ar
     7    17    23    1
     8    18    19   ar
     9    18    22    2
    10    19    20   ar
    11     6     7    1
    12     6    11    1
    13     7     8    1
    14     7     9    1
    15     8    13    1
    16     9    10    1
    17     9    12    1
    18    10    11    1
    19    10     5    1
    20    12    14    1
    21     5     4    1
    22     4     1    1
    23     1     2    2
    24     1     3    1
    25     1    24    1
    26    24    25    1
    27    25    26    2
    28    25    27    1
    29    25    28    1
    30    28    29    1
    31    29    30    1
    32    29    37    1
    33    30    31    1
    34    30    34    1
    35    31    32    1
    36    31    35    1
    37    32    33    1
    38    32    36    1
    39    33    41    1
    40    33    37    1
    41    41    42    1
    42    34    38    1
    43    35    39    1
    44    36    40    1
    45    42    43    1
@<TRIPOS>MOLECULE
GDU
 43 45 0 0 0
SMALL
GASTEIGER

@<TRIPOS>ATOM
      1 P          24.0547   71.3475    1.9674 P.3     1  UNL1        0.2189
      2 O          24.9630   70.3044    2.4933 O.2     1  UNL1       -0.5170
      3 O          22.6496   71.2804    2.7512 O.3     1  UNL1       -0.4371
      4 O          24.7197   72.7962    2.1812 O.3     1  UNL1       -0.3112
      5 C          23.8630   73.5181    3.0675 C.3     1  UNL1        0.1811
      6 C          26.8921   74.8125    4.5085 C.3     1  UNL1        0.2383
      7 C          26.8008   75.4927    3.1186 C.3     1  UNL1        0.1895
      8 O          27.4005   76.7900    3.1454 O.3     1  UNL1       -0.3779
      9 C          25.2678   75.5962    2.9076 C.3     1  UNL1        0.1713
     10 C          24.6865   74.5349    3.8601 C.3     1  UNL1        0.1764
     11 O          25.7941   73.8757    4.4979 O.3     1  UNL1       -0.3308
     12 O          24.8023   76.9011    3.2578 O.3     1  UNL1       -0.3794
     13 H          27.3109   77.1570    2.2548 H       1  UNL1        0.2106
     14 H          25.2457   77.5246    2.6667 H       1  UNL1        0.2105
     15 N          28.1678   74.1103    4.6587 N.ar    1  UNL1       -0.2551
     16 C          28.3864   72.9715    3.9778 C.ar    1  UNL1        0.3323
     17 N          29.5518   72.3084    4.0954 N.ar    1  UNL1       -0.2743
     18 C          30.5193   72.7728    4.9094 C.ar    1  UNL1        0.2626
     19 C          30.3008   73.9680    5.6373 C.ar    1  UNL1        0.0795
     20 C          29.1244   74.6155    5.4976 C.ar    1  UNL1        0.0869
     21 O          27.5232   72.5407    3.2393 O.2     1  UNL1       -0.2464
     22 O          31.5727   72.1706    5.0201 O.2     1  UNL1       -0.2670
     23 H          29.6941   71.4903    3.5931 H       1  UNL1        0.1734
     24 O          23.8039   71.0972    0.3968 O.3     1  UNL1       -0.2703
     25 P          22.2111   71.1234    0.1685 P.3     1  UNL1        0.2208
     26 O          21.5751   70.0869    1.0114 O.2     1  UNL1       -0.5170
     27 O          21.6349   72.5718    0.5737 O.3     1  UNL1       -0.4371
     28 O          21.8849   70.8315   -1.3802 O.3     1  UNL1       -0.2858
     29 C          20.9444   71.8210   -1.7998 C.3     1  UNL1        0.2704
     30 C          19.7592   71.1390   -2.4849 C.3     1  UNL1        0.1967
     31 C          20.2714   70.3363   -3.6848 C.3     1  UNL1        0.1715
     32 C          21.0956   71.2671   -4.5813 C.3     1  UNL1        0.1694
     33 C          22.1816   71.9384   -3.7368 C.3     1  UNL1        0.1761
     34 O          19.1125   70.2617   -1.5612 O.3     1  UNL1       -0.3775
     35 O          19.1635   69.8137   -4.4210 O.3     1  UNL1       -0.3794
     36 O          20.2426   72.2617   -5.1498 O.3     1  UNL1       -0.3794
     37 O          21.5766   72.7202   -2.7078 O.3     1  UNL1       -0.3258
     38 H          18.8135   70.8072   -0.8209 H       1  UNL1        0.2106
     39 H          18.6687   69.2459   -3.8168 H       1  UNL1        0.2105
     40 H          19.5733   71.7943   -5.6663 H       1  UNL1        0.2105
     41 C          23.0324   72.8444   -4.6298 C.3     1  UNL1        0.1693
     42 O          24.3911   72.8048   -4.1903 O.3     1  UNL1       -0.3794
     43 H          24.8925   73.3866   -4.7779 H       1  UNL1        0.2105
@<TRIPOS>BOND
     1    15    16   ar
     2    15    20   ar
     3    15     6    1
     4    16    17   ar
     5    16    21    2
     6    17    18   ar
     7    17    23    1
     8    18    19   ar
     9    18    22    2
    10    19    20   ar
    11     6     7    1
    12     6    11    1
    13     7     8    1
    14     7     9    1
    15     8    13    1
    16     9    10    1
    17     9    12    1
    18    10    11    1
    19    10     5    1
    20    12    14    1
    21     5     4    1
    22     4     1    1
    23     1     2    2
    24     1     3    1
    25     1    24    1
    26    24    25    1
    27    25    26    2
    28    25    27    1
    29    25    28    1
    30    28    29    1
    31    29    30    1
    32    29    37    1
    33    30    31    1
    34    30    34    1
    35    31    32    1
    36    31    35    1
    37    32    33    1
    38    32    36    1
    39    33    41    1
    40    33    37    1
    41    41    42    1
    42    34    38    1
    43    35    39    1
    44    36    40    1
    45    42    43    1
@<TRIPOS>MOLECULE
GDU
 43 45 0 0 0
SMALL
GASTEIGER

@<TRIPOS>ATOM
      1 P          22.3327   71.1618    0.2079 P.3     1  UNL1        0.2189
      2 O          21.0221   70.4806    0.2971 O.2     1  UNL1       -0.5170
      3 O          23.4409   70.2982    0.9946 O.3     1  UNL1       -0.4371
      4 O          22.7600   71.3043   -1.3361 O.3     1  UNL1       -0.3112
      5 C          21.5533   71.3102   -2.1005 C.3     1  UNL1        0.1811
      6 C          20.7146   70.7943   -5.5585 C.3     1  UNL1        0.2383
      7 C          21.0659   72.3012   -5.4639 C.3     1  UNL1        0.1895
      8 O          21.6254   72.7724   -6.6919 O.3     1  UNL1       -0.3779
      9 C          22.1251   72.3174   -4.3312 C.3     1  UNL1        0.1713
     10 C          21.8737   71.0054   -3.5650 C.3     1  UNL1        0.1764
     11 O          20.7521   70.3528   -4.1848 O.3     1  UNL1       -0.3308
     12 O          23.4440   72.3386   -4.8809 O.3     1  UNL1       -0.3794
     13 H          21.8205   73.7117   -6.5672 H       1  UNL1        0.2106
     14 H          23.5195   73.1532   -5.3962 H       1  UNL1        0.2105
     15 N          19.3770   70.6088   -6.1236 N.ar    1  UNL1       -0.2551
     16 C          19.2320   70.4258   -7.4479 C.ar    1  UNL1        0.3323
     17 N          18.0137   70.2494   -7.9923 N.ar    1  UNL1       -0.2743
     18 C          16.9134   70.2633   -7.2157 C.ar    1  UNL1        0.2626
     19 C          17.0503   70.4608   -5.8198 C.ar    1  UNL1        0.0795
     20 C          18.2842   70.6310   -5.2993 C.ar    1  UNL1        0.0869
     21 O          20.2155   70.4104   -8.1612 O.2     1  UNL1       -0.2464
     22 O          15.8098   70.1085   -7.7082 O.2     1  UNL1       -0.2670
     23 H          17.9280   70.1144   -8.9495 H       1  UNL1        0.1734
     24 O          22.2226   72.6241    0.8727 O.3     1  UNL1       -0.2703
     25 P          21.9347   72.4034    2.4407 P.3     1  UNL1        0.2208
     26 O          20.5011   72.0964    2.6402 O.2     1  UNL1       -0.5170
     27 O          22.8263   71.1763    2.9823 O.3     1  UNL1       -0.4371
     28 O          22.3159   73.7407    3.2509 O.3     1  UNL1       -0.2858
     29 C          23.3527   73.3889    4.1679 C.3     1  UNL1        0.2704
     30 C          22.9907   73.8961    5.5647 C.3     1  UNL1        0.1967
     31 C          22.8084   75.4161    5.5115 C.3     1  UNL1        0.1715
     32 C          24.0669   76.0393    4.8972 C.3     1  UNL1        0.1694
     33 C          24.3463   75.3704    3.5490 C.3     1  UNL1        0.1761
     34 O          21.7754   73.2816    5.9969 O.3     1  UNL1       -0.3775
     35 O          22.6151   75.9230    6.8337 O.3     1  UNL1       -0.3794
     36 O          25.1762   75.8392    5.7743 O.3     1  UNL1       -0.3794
     37 O          24.5803   73.9762    3.7427 O.3     1  UNL1       -0.3258
     38 H          21.9338   72.3279    6.0085 H       1  UNL1        0.2106
     39 H          21.8229   75.4964    7.1839 H       1  UNL1        0.2105
     40 H          24.9540   76.2708    6.6096 H       1  UNL1        0.2105
     41 C          25.5818   76.0094    2.9109 C.3     1  UNL1        0.1693
     42 O          25.3057   76.3161    1.5432 O.3     1  UNL1       -0.3794
     43 H          26.1071   76.7166    1.1789 H       1  UNL1        0.2105
@<TRIPOS>BOND
     1    15    16   ar
     2    15    20   ar
     3    15     6    1
     4    16    17   ar
     5    16    21    2
     6    17    18   ar
     7    17    23    1
     8    18    19   ar
     9    18    22    2
    10    19    20   ar
    11     6     7    1
    12     6    11    1
    13     7     8    1
    14     7     9    1
    15     8    13    1
    16     9    10    1
    17     9    12    1
    18    10    11    1
    19    10     5    1
    20    12    14    1
    21     5     4    1
    22     4     1    1
    23     1     2    2
    24     1     3    1
    25     1    24    1
    26    24    25    1
    27    25    26    2
    28    25    27    1
    29    25    28    1
    30    28    29    1
    31    29    30    1
    32    29    37    1
    33    30    31    1
    34    30    34    1
    35    31    32    1
    36    31    35    1
    37    32    33    1
    38    32    36    1
    39    33    41    1
    40    33    37    1
    41    41    42    1
    42    34    38    1
    43    35    39    1
    44    36    40    1
    45    42    43    1
@<TRIPOS>MOLECULE
GDU
 43 45 0 0 0
SMALL
GASTEIGER

@<TRIPOS>ATOM
      1 P          22.6483   73.3744   -5.1488 P.3     1  UNL1        0.2189
      2 O          23.0177   74.3599   -6.1890 O.2     1  UNL1       -0.5170
      3 O          23.8240   73.2857   -4.0520 O.3     1  UNL1       -0.4371
      4 O          21.2821   73.8335   -4.4350 O.3     1  UNL1       -0.3112
      5 C          21.6516   74.5420   -3.2510 C.3     1  UNL1        0.1811
      6 C          21.5680   72.9155   -0.0456 C.3     1  UNL1        0.2383
      7 C          21.4768   74.4277    0.2829 C.3     1  UNL1        0.1895
      8 O          20.7207   74.6455    1.4763 O.3     1  UNL1       -0.3779
      9 C          20.7278   74.9846   -0.9557 C.3     1  UNL1        0.1713
     10 C          20.9544   73.9164   -2.0416 C.3     1  UNL1        0.1764
     11 O          21.7892   72.8933   -1.4718 O.3     1  UNL1       -0.3308
     12 O          19.3350   75.1322   -0.6727 O.3     1  UNL1       -0.3794
     13 H          20.7022   75.6013    1.6241 H       1  UNL1        0.2106
     14 H          19.2623   75.7672    0.0527 H       1  UNL1        0.2105
     15 N          22.6925   72.2990    0.6604 N.ar    1  UNL1       -0.2551
     16 C          22.6046   71.0200    1.0663 C.ar    1  UNL1        0.3323
     17 N          23.6255   70.4285    1.7142 N.ar    1  UNL1       -0.2743
     18 C          24.7539   71.1156    1.9763 C.ar    1  UNL1        0.2626
     19 C          24.8584   72.4654    1.5598 C.ar    1  UNL1        0.0795
     20 C          23.8213   73.0330    0.9080 C.ar    1  UNL1        0.0869
     21 O          21.5932   70.3873    0.8366 O.2     1  UNL1       -0.2464
     22 O          25.6766   70.5825    2.5669 O.2     1  UNL1       -0.2670
     23 H          23.5465   69.5033    1.9961 H       1  UNL1        0.1734
     24 O          22.4408   71.9299   -5.8291 O.3     1  UNL1       -0.2703
     25 P          21.0643   71.9988   -6.6600 P.3     1  UNL1        0.2208
     26 O          20.9605   73.3118   -7.3342 O.2     1  UNL1       -0.5170
     27 O          21.0449   70.8262   -7.7641 O.3     1  UNL1       -0.4371
     28 O          19.8204   71.8099   -5.6565 O.3     1  UNL1       -0.2858
     29 C          19.4320   70.4375   -5.7308 C.3     1  UNL1        0.2704
     30 C          18.0440   70.3348   -6.3650 C.3     1  UNL1        0.1967
     31 C          17.0484   71.1336   -5.5181 C.3     1  UNL1        0.1715
     32 C          17.1400   70.6486   -4.0668 C.3     1  UNL1        0.1694
     33 C          18.5974   70.7295   -3.6060 C.3     1  UNL1        0.1761
     34 O          18.0826   70.8674   -7.6902 O.3     1  UNL1       -0.3775
     35 O          15.7236   70.9278   -6.0129 O.3     1  UNL1       -0.3794
     36 O          16.6820   69.2983   -3.9845 O.3     1  UNL1       -0.3794
     37 O          19.4070   69.8808   -4.4185 O.3     1  UNL1       -0.3258
     38 H          18.7254   70.3403   -8.1840 H       1  UNL1        0.2106
     39 H          15.7160   71.2346   -6.9284 H       1  UNL1        0.2105
     40 H          15.7652   69.2946   -4.2888 H       1  UNL1        0.2105
     41 C          18.6947   70.2798   -2.1465 C.3     1  UNL1        0.1693
     42 O          20.0473   70.3975   -1.7018 O.3     1  UNL1       -0.3794
     43 H          20.0652   70.1058   -0.7799 H       1  UNL1        0.2105
@<TRIPOS>BOND
     1    15    16   ar
     2    15    20   ar
     3    15     6    1
     4    16    17   ar
     5    16    21    2
     6    17    18   ar
     7    17    23    1
     8    18    19   ar
     9    18    22    2
    10    19    20   ar
    11     6     7    1
    12     6    11    1
    13     7     8    1
    14     7     9    1
    15     8    13    1
    16     9    10    1
    17     9    12    1
    18    10    11    1
    19    10     5    1
    20    12    14    1
    21     5     4    1
    22     4     1    1
    23     1     2    2
    24     1     3    1
    25     1    24    1
    26    24    25    1
    27    25    26    2
    28    25    27    1
    29    25    28    1
    30    28    29    1
    31    29    30    1
    32    29    37    1
    33    30    31    1
    34    30    34    1
    35    31    32    1
    36    31    35    1
    37    32    33    1
    38    32    36    1
    39    33    41    1
    40    33    37    1
    41    41    42    1
    42    34    38    1
    43    35    39    1
    44    36    40    1
    45    42    43    1
@<TRIPOS>MOLECULE
GDU
 43 45 0 0 0
SMALL
GASTEIGER

@<TRIPOS>ATOM
      1 P          21.5179   73.2169   -0.7250 P.3     1  UNL1        0.2189
      2 O          22.7558   73.9622   -0.4064 O.2     1  UNL1       -0.5170
      3 O          20.4264   73.4701    0.4315 O.3     1  UNL1       -0.4371
      4 O          20.9333   73.7242   -2.1349 O.3     1  UNL1       -0.3112
      5 C          20.9865   72.6116   -3.0293 C.3     1  UNL1        0.1811
      6 C          18.4988   71.3097   -5.2751 C.3     1  UNL1        0.2383
      7 C          18.9634   70.0798   -4.4539 C.3     1  UNL1        0.1895
      8 O          17.9003   69.1363   -4.3030 O.3     1  UNL1       -0.3779
      9 C          19.3322   70.7202   -3.0903 C.3     1  UNL1        0.1713
     10 C          19.5659   72.2051   -3.4252 C.3     1  UNL1        0.1764
     11 O          19.3914   72.3591   -4.8444 O.3     1  UNL1       -0.3308
     12 O          18.2560   70.5732   -2.1619 O.3     1  UNL1       -0.3794
     13 H          18.2532   68.3989   -3.7858 H       1  UNL1        0.2106
     14 H          18.1198   69.6239   -2.0390 H       1  UNL1        0.2105
     15 N          18.6492   71.0613   -6.7099 N.ar    1  UNL1       -0.2551
     16 C          19.8789   70.9970   -7.2502 C.ar    1  UNL1        0.3323
     17 N          20.0449   70.7662   -8.5659 N.ar    1  UNL1       -0.2743
     18 C          18.9751   70.6050   -9.3683 C.ar    1  UNL1        0.2626
     19 C          17.6736   70.6759   -8.8140 C.ar    1  UNL1        0.0795
     20 C          17.5357   70.9042   -7.4906 C.ar    1  UNL1        0.0869
     21 O          20.8535   71.1400   -6.5389 O.2     1  UNL1       -0.2464
     22 O          19.1243   70.4008  -10.5602 O.2     1  UNL1       -0.2670
     23 H          20.9399   70.7187   -8.9382 H       1  UNL1        0.1734
     24 O          21.8479   71.6435   -0.8143 O.3     1  UNL1       -0.2703
     25 P          22.5973   71.2456    0.5532 P.3     1  UNL1        0.2208
     26 O          21.8570   70.1524    1.2211 O.2     1  UNL1       -0.5170
     27 O          24.0947   70.7541    0.2208 O.3     1  UNL1       -0.4371
     28 O          22.6578   72.5265    1.5256 O.3     1  UNL1       -0.2858
     29 C          22.7440   72.0294    2.8618 C.3     1  UNL1        0.2704
     30 C          21.6056   72.6162    3.6978 C.3     1  UNL1        0.1967
     31 C          21.7113   74.1443    3.6813 C.3     1  UNL1        0.1715
     32 C          23.1220   74.5427    4.1293 C.3     1  UNL1        0.1694
     33 C          24.1461   73.8107    3.2585 C.3     1  UNL1        0.1761
     34 O          20.3503   72.2158    3.1452 O.3     1  UNL1       -0.3775
     35 O          20.7456   74.7020    4.5751 O.3     1  UNL1       -0.3794
     36 O          23.3079   74.1827    5.4989 O.3     1  UNL1       -0.3794
     37 O          23.9998   72.4012    3.4252 O.3     1  UNL1       -0.3258
     38 H          20.3306   71.2494    3.1689 H       1  UNL1        0.2106
     39 H          19.8776   74.4167    4.2629 H       1  UNL1        0.2105
     40 H          22.6401   74.6612    6.0072 H       1  UNL1        0.2105
     41 C          25.5583   74.2279    3.6752 C.3     1  UNL1        0.1693
     42 O          26.4804   73.8856    2.6390 O.3     1  UNL1       -0.3794
     43 H          27.3560   74.1652    2.9400 H       1  UNL1        0.2105
@<TRIPOS>BOND
     1    15    16   ar
     2    15    20   ar
     3    15     6    1
     4    16    17   ar
     5    16    21    2
     6    17    18   ar
     7    17    23    1
     8    18    19   ar
     9    18    22    2
    10    19    20   ar
    11     6     7    1
    12     6    11    1
    13     7     8    1
    14     7     9    1
    15     8    13    1
    16     9    10    1
    17     9    12    1
    18    10    11    1
    19    10     5    1
    20    12    14    1
    21     5     4    1
    22     4     1    1
    23     1     2    2
    24     1     3    1
    25     1    24    1
    26    24    25    1
    27    25    26    2
    28    25    27    1
    29    25    28    1
    30    28    29    1
    31    29    30    1
    32    29    37    1
    33    30    31    1
    34    30    34    1
    35    31    32    1
    36    31    35    1
    37    32    33    1
    38    32    36    1
    39    33    41    1
    40    33    37    1
    41    41    42    1
    42    34    38    1
    43    35    39    1
    44    36    40    1
    45    42    43    1
@<TRIPOS>MOLECULE
GDU
 43 45 0 0 0
SMALL
GASTEIGER

@<TRIPOS>ATOM
      1 P          22.5253   71.6062   -2.8329 P.3     1  UNL1        0.2189
      2 O          22.0384   73.0016   -2.7598 O.2     1  UNL1       -0.5170
      3 O          23.9400   71.5712   -3.6012 O.3     1  UNL1       -0.4371
      4 O          22.7079   71.0225   -1.3454 O.3     1  UNL1       -0.3112
      5 C          21.4020   70.9313   -0.7736 C.3     1  UNL1        0.1811
      6 C          23.0923   71.7404    2.2950 C.3     1  UNL1        0.2383
      7 C          22.4155   73.0662    1.8622 C.3     1  UNL1        0.1895
      8 O          22.0613   73.8534    3.0015 O.3     1  UNL1       -0.3779
      9 C          21.1489   72.5588    1.1250 C.3     1  UNL1        0.1713
     10 C          21.4942   71.1074    0.7432 C.3     1  UNL1        0.1764
     11 O          22.8397   70.8548    1.1835 O.3     1  UNL1       -0.3308
     12 O          20.0154   72.5984    1.9943 O.3     1  UNL1       -0.3794
     13 H          21.6472   74.6604    2.6650 H       1  UNL1        0.2106
     14 H          19.8865   73.5233    2.2446 H       1  UNL1        0.2105
     15 N          24.5310   71.9314    2.4857 N.ar    1  UNL1       -0.2551
     16 C          25.3482   70.8637    2.5090 C.ar    1  UNL1        0.3323
     17 N          26.6752   71.0122    2.6793 N.ar    1  UNL1       -0.2743
     18 C          27.2071   72.2392    2.8398 C.ar    1  UNL1        0.2626
     19 C          26.3577   73.3725    2.8232 C.ar    1  UNL1        0.0795
     20 C          25.0311   73.1956    2.6464 C.ar    1  UNL1        0.0869
     21 O          24.8830   69.7507    2.3650 O.2     1  UNL1       -0.2464
     22 O          28.4075   72.3741    2.9987 O.2     1  UNL1       -0.2670
     23 H          27.2506   70.2308    2.6892 H       1  UNL1        0.1734
     24 O          21.4576   70.7077   -3.6362 O.3     1  UNL1       -0.2703
     25 P          20.6568   71.7004   -4.6176 P.3     1  UNL1        0.2208
     26 O          19.8397   72.6356   -3.8134 O.2     1  UNL1       -0.5170
     27 O          21.7066   72.5358   -5.5088 O.3     1  UNL1       -0.4371
     28 O          19.6975   70.8427   -5.5841 O.3     1  UNL1       -0.2858
     29 C          18.6893   71.7330   -6.0644 C.3     1  UNL1        0.2704
     30 C          17.3084   71.1609   -5.7404 C.3     1  UNL1        0.1967
     31 C          17.1722   69.7842   -6.3981 C.3     1  UNL1        0.1715
     32 C          17.4872   69.9214   -7.8919 C.3     1  UNL1        0.1694
     33 C          18.8565   70.5863   -8.0528 C.3     1  UNL1        0.1761
     34 O          17.1634   71.0332   -4.3248 O.3     1  UNL1       -0.3775
     35 O          15.8378   69.3011   -6.2287 O.3     1  UNL1       -0.3794
     36 O          16.4851   70.7223   -8.5199 O.3     1  UNL1       -0.3794
     37 O          18.8294   71.8904   -7.4745 O.3     1  UNL1       -0.3258
     38 H          17.2633   71.9202   -3.9530 H       1  UNL1        0.2106
     39 H          15.6801   69.2422   -5.2779 H       1  UNL1        0.2105
     40 H          15.6419   70.2694   -8.3887 H       1  UNL1        0.2105
     41 C          19.1961   70.6970   -9.5409 C.3     1  UNL1        0.1693
     42 O          18.1692   70.0697  -10.3109 O.3     1  UNL1       -0.3794
     43 H          18.4203   70.1620  -11.2402 H       1  UNL1        0.2105
@<TRIPOS>BOND
     1    15    16   ar
     2    15    20   ar
     3    15     6    1
     4    16    17   ar
     5    16    21    2
     6    17    18   ar
     7    17    23    1
     8    18    19   ar
     9    18    22    2
    10    19    20   ar
    11     6     7    1
    12     6    11    1
    13     7     8    1
    14     7     9    1
    15     8    13    1
    16     9    10    1
    17     9    12    1
    18    10    11    1
    19    10     5    1
    20    12    14    1
    21     5     4    1
    22     4     1    1
    23     1     2    2
    24     1     3    1
    25     1    24    1
    26    24    25    1
    27    25    26    2
    28    25    27    1
    29    25    28    1
    30    28    29    1
    31    29    30    1
    32    29    37    1
    33    30    31    1
    34    30    34    1
    35    31    32    1
    36    31    35    1
    37    32    33    1
    38    32    36    1
    39    33    41    1
    40    33    37    1
    41    41    42    1
    42    34    38    1
    43    35    39    1
    44    36    40    1
    45    42    43    1
@<TRIPOS>MOLECULE
GDU
 43 45 0 0 0
SMALL
GASTEIGER

@<TRIPOS>ATOM
      1 P          22.3301   73.6898   -4.8439 P.3     1  UNL1        0.2189
      2 O          22.5109   74.9207   -5.6451 O.2     1  UNL1       -0.5170
      3 O          23.4138   72.5893   -5.2991 O.3     1  UNL1       -0.4371
      4 O          22.5325   74.0294   -3.2848 O.3     1  UNL1       -0.3112
      5 C          21.4516   73.4128   -2.5834 C.3     1  UNL1        0.1811
      6 C          23.2062   71.4998   -0.0956 C.3     1  UNL1        0.2383
      7 C          21.7561   71.6013    0.4428 C.3     1  UNL1        0.1895
      8 O          21.4170   70.4473    1.2152 O.3     1  UNL1       -0.3779
      9 C          20.9264   71.6539   -0.8664 C.3     1  UNL1        0.1713
     10 C          21.9373   72.1168   -1.9318 C.3     1  UNL1        0.1764
     11 O          23.1911   72.3452   -1.2655 O.3     1  UNL1       -0.3308
     12 O          20.4119   70.3592   -1.1842 O.3     1  UNL1       -0.3794
     13 H          20.5073   70.5729    1.5195 H       1  UNL1        0.2106
     14 H          19.8340   70.1004   -0.4537 H       1  UNL1        0.2105
     15 N          24.1619   72.0032    0.8923 N.ar    1  UNL1       -0.2551
     16 C          24.8199   71.1385    1.6845 C.ar    1  UNL1        0.3323
     17 N          25.7065   71.5750    2.5984 N.ar    1  UNL1       -0.2743
     18 C          25.9425   72.8934    2.7412 C.ar    1  UNL1        0.2626
     19 C          25.2525   73.8162    1.9176 C.ar    1  UNL1        0.0795
     20 C          24.3718   73.3512    1.0062 C.ar    1  UNL1        0.0869
     21 O          24.6178   69.9462    1.5670 O.2     1  UNL1       -0.2464
     22 O          26.7413   73.2898    3.5715 O.2     1  UNL1       -0.2670
     23 H          26.1755   70.9365    3.1589 H       1  UNL1        0.1734
     24 O          20.8467   73.1100   -5.0800 O.3     1  UNL1       -0.2703
     25 P          20.7409   72.7194   -6.6376 P.3     1  UNL1        0.2208
     26 O          21.2668   73.8302   -7.4613 O.2     1  UNL1       -0.5170
     27 O          21.6049   71.3891   -6.9169 O.3     1  UNL1       -0.4371
     28 O          19.2015   72.4482   -7.0206 O.3     1  UNL1       -0.2858
     29 C          19.0581   71.0372   -7.1890 C.3     1  UNL1        0.2704
     30 C          18.0444   70.7574   -8.2996 C.3     1  UNL1        0.1967
     31 C          16.7039   71.3962   -7.9237 C.3     1  UNL1        0.1715
     32 C          16.2986   70.9010   -6.5307 C.3     1  UNL1        0.1694
     33 C          17.4449   71.1720   -5.5532 C.3     1  UNL1        0.1761
     34 O          18.5143   71.3152   -9.5282 O.3     1  UNL1       -0.3775
     35 O          15.7085   71.0203   -8.8779 O.3     1  UNL1       -0.3794
     36 O          16.0289   69.4994   -6.5817 O.3     1  UNL1       -0.3794
     37 O          18.6089   70.4576   -5.9663 O.3     1  UNL1       -0.3258
     38 H          19.3611   70.8905   -9.7215 H       1  UNL1        0.2106
     39 H          16.0099   71.3405   -9.7375 H       1  UNL1        0.2105
     40 H          15.3070   69.3760   -7.2116 H       1  UNL1        0.2105
     41 C          17.0371   70.7123   -4.1516 C.3     1  UNL1        0.1693
     42 O          15.6341   70.9153   -3.9741 O.3     1  UNL1       -0.3794
     43 H          15.4183   70.6130   -3.0812 H       1  UNL1        0.2105
@<TRIPOS>BOND
     1    15    16   ar
     2    15    20   ar
     3    15     6    1
     4    16    17   ar
     5    16    21    2
     6    17    18   ar
     7    17    23    1
     8    18    19   ar
     9    18    22    2
    10    19    20   ar
    11     6     7    1
    12     6    11    1
    13     7     8    1
    14     7     9    1
    15     8    13    1
    16     9    10    1
    17     9    12    1
    18    10    11    1
    19    10     5    1
    20    12    14    1
    21     5     4    1
    22     4     1    1
    23     1     2    2
    24     1     3    1
    25     1    24    1
    26    24    25    1
    27    25    26    2
    28    25    27    1
    29    25    28    1
    30    28    29    1
    31    29    30    1
    32    29    37    1
    33    30    31    1
    34    30    34    1
    35    31    32    1
    36    31    35    1
    37    32    33    1
    38    32    36    1
    39    33    41    1
    40    33    37    1
    41    41    42    1
    42    34    38    1
    43    35    39    1
    44    36    40    1
    45    42    43    1
@<TRIPOS>MOLECULE
GDU
 43 45 0 0 0
SMALL
GASTEIGER

@<TRIPOS>ATOM
      1 P          21.1414   71.2273   -0.0824 P.3     1  UNL1        0.2189
      2 O          21.5078   70.2721    0.9866 O.2     1  UNL1       -0.5170
      3 O          20.2386   72.4072    0.5387 O.3     1  UNL1       -0.4371
      4 O          22.4767   71.8540   -0.7236 O.3     1  UNL1       -0.3112
      5 C          23.5346   71.6120    0.2052 C.3     1  UNL1        0.1811
      6 C          25.0551   73.6410    2.7544 C.3     1  UNL1        0.2383
      7 C          25.2204   74.4645    1.4515 C.3     1  UNL1        0.1895
      8 O          25.2078   75.8666    1.7294 O.3     1  UNL1       -0.3779
      9 C          23.9635   74.0496    0.6432 C.3     1  UNL1        0.1713
     10 C          23.5403   72.7088    1.2716 C.3     1  UNL1        0.1764
     11 O          24.4998   72.3906    2.2944 O.3     1  UNL1       -0.3308
     12 O          22.9307   75.0263    0.7892 O.3     1  UNL1       -0.3794
     13 H          25.3145   76.3199    0.8815 H       1  UNL1        0.2106
     14 H          23.2768   75.8554    0.4322 H       1  UNL1        0.2105
     15 N          26.3518   73.4239    3.3980 N.ar    1  UNL1       -0.2551
     16 C          26.7648   74.2617    4.3654 C.ar    1  UNL1        0.3323
     17 N          27.9511   74.0823    4.9755 N.ar    1  UNL1       -0.2743
     18 C          28.7522   73.0604    4.6175 C.ar    1  UNL1        0.2626
     19 C          28.3328   72.1733    3.5960 C.ar    1  UNL1        0.0795
     20 C          27.1364   72.3737    3.0036 C.ar    1  UNL1        0.0869
     21 O          26.0528   75.1877    4.6993 O.2     1  UNL1       -0.2464
     22 O          29.8284   72.9000    5.1659 O.2     1  UNL1       -0.2670
     23 H          28.2314   74.6941    5.6747 H       1  UNL1        0.1734
     24 O          20.3059   70.4587   -1.2243 O.3     1  UNL1       -0.2703
     25 P          20.6771   71.1586   -2.6251 P.3     1  UNL1        0.2208
     26 O          20.5148   72.6241   -2.5023 O.2     1  UNL1       -0.5170
     27 O          22.2046   70.8185   -3.0064 O.3     1  UNL1       -0.4371
     28 O          19.7012   70.6044   -3.7785 O.3     1  UNL1       -0.2858
     29 C          18.5814   71.4890   -3.8350 C.3     1  UNL1        0.2704
     30 C          17.3066   70.7196   -3.4854 C.3     1  UNL1        0.1967
     31 C          17.1338   69.5644   -4.4763 C.3     1  UNL1        0.1715
     32 C          17.1852   70.1286   -5.9006 C.3     1  UNL1        0.1694
     33 C          18.4712   70.9418   -6.0677 C.3     1  UNL1        0.1761
     34 O          17.4088   70.2020   -2.1576 O.3     1  UNL1       -0.3775
     35 O          15.8742   68.9264   -4.2552 O.3     1  UNL1       -0.3794
     36 O          16.0511   70.9679   -6.1233 O.3     1  UNL1       -0.3794
     37 O          18.4736   72.0330   -5.1484 O.3     1  UNL1       -0.3258
     38 H          17.5233   70.9614   -1.5702 H       1  UNL1        0.2106
     39 H          15.8821   68.5987   -3.3470 H       1  UNL1        0.2105
     40 H          15.2670   70.4168   -6.0021 H       1  UNL1        0.2105
     41 C          18.5491   71.4815   -7.4976 C.3     1  UNL1        0.1693
     42 O          17.9314   72.7684   -7.5544 O.3     1  UNL1       -0.3794
     43 H          18.0023   73.0728   -8.4696 H       1  UNL1        0.2105
@<TRIPOS>BOND
     1    15    16   ar
     2    15    20   ar
     3    15     6    1
     4    16    17   ar
     5    16    21    2
     6    17    18   ar
     7    17    23    1
     8    18    19   ar
     9    18    22    2
    10    19    20   ar
    11     6     7    1
    12     6    11    1
    13     7     8    1
    14     7     9    1
    15     8    13    1
    16     9    10    1
    17     9    12    1
    18    10    11    1
    19    10     5    1
    20    12    14    1
    21     5     4    1
    22     4     1    1
    23     1     2    2
    24     1     3    1
    25     1    24    1
    26    24    25    1
    27    25    26    2
    28    25    27    1
    29    25    28    1
    30    28    29    1
    31    29    30    1
    32    29    37    1
    33    30    31    1
    34    30    34    1
    35    31    32    1
    36    31    35    1
    37    32    33    1
    38    32    36    1
    39    33    41    1
    40    33    37    1
    41    41    42    1
    42    34    38    1
    43    35    39    1
    44    36    40    1
    45    42    43    1
@<TRIPOS>MOLECULE
GDU
 43 45 0 0 0
SMALL
GASTEIGER

@<TRIPOS>ATOM
      1 P          15.7753   71.5745   -1.9851 P.3     1  UNL1        0.2189
      2 O          14.8248   72.1381   -2.9692 O.2     1  UNL1       -0.5170
      3 O          16.5514   72.7734   -1.2413 O.3     1  UNL1       -0.4371
      4 O          14.9704   70.7017   -0.9000 O.3     1  UNL1       -0.3112
      5 C          13.5952   71.0727   -1.0085 C.3     1  UNL1        0.1811
      6 C          12.1219   68.0802    0.3338 C.3     1  UNL1        0.2383
      7 C          11.0602   69.1820    0.5826 C.3     1  UNL1        0.1895
      8 O           9.7400   68.6352    0.5475 O.3     1  UNL1       -0.3779
      9 C          11.2956   70.1367   -0.6167 C.3     1  UNL1        0.1713
     10 C          12.7293   69.8134   -1.0767 C.3     1  UNL1        0.1764
     11 O          13.2519   68.8125   -0.1860 O.3     1  UNL1       -0.3308
     12 O          10.3562   69.8694   -1.6598 O.3     1  UNL1       -0.3794
     13 H           9.1300   69.3685    0.7088 H       1  UNL1        0.2106
     14 H           9.4766   70.0330   -1.2933 H       1  UNL1        0.2105
     15 N          12.4743   67.4084    1.5857 N.ar    1  UNL1       -0.2551
     16 C          12.4147   66.0672    1.6625 C.ar    1  UNL1        0.3323
     17 N          12.7369   65.4247    2.8007 N.ar    1  UNL1       -0.2743
     18 C          13.1168   66.1200    3.8898 C.ar    1  UNL1        0.2626
     19 C          13.1787   67.5336    3.8253 C.ar    1  UNL1        0.0795
     20 C          12.8543   68.1524    2.6702 C.ar    1  UNL1        0.0869
     21 O          12.0742   65.4264    0.6881 O.2     1  UNL1       -0.2464
     22 O          13.4040   65.5397    4.9219 O.2     1  UNL1       -0.2670
     23 H          12.6923   64.4559    2.8369 H       1  UNL1        0.1734
     24 O          16.8411   70.6374   -2.7456 O.3     1  UNL1       -0.2703
     25 P          17.7676   71.6093   -3.6327 P.3     1  UNL1        0.2208
     26 O          17.1789   72.9665   -3.6550 O.2     1  UNL1       -0.5170
     27 O          19.2436   71.6756   -2.9915 O.3     1  UNL1       -0.4371
     28 O          17.8615   71.0393   -5.1348 O.3     1  UNL1       -0.2858
     29 C          17.7741   72.1633   -6.0114 C.3     1  UNL1        0.2704
     30 C          16.5369   72.0215   -6.8994 C.3     1  UNL1        0.1967
     31 C          16.6435   70.7192   -7.6988 C.3     1  UNL1        0.1715
     32 C          17.9843   70.7086   -8.4417 C.3     1  UNL1        0.1694
     33 C          19.1127   70.9482   -7.4355 C.3     1  UNL1        0.1761
     34 O          15.3638   71.9899   -6.0844 O.3     1  UNL1       -0.3775
     35 O          15.5702   70.6439   -8.6394 O.3     1  UNL1       -0.3794
     36 O          17.9914   71.7402   -9.4295 O.3     1  UNL1       -0.3794
     37 O          18.9462   72.2250   -6.8206 O.3     1  UNL1       -0.3258
     38 H          15.3414   72.8236   -5.5953 H       1  UNL1        0.2106
     39 H          14.7500   70.6656   -8.1304 H       1  UNL1        0.2105
     40 H          17.2633   71.5520  -10.0359 H       1  UNL1        0.2105
     41 C          20.4590   70.9054   -8.1619 C.3     1  UNL1        0.1693
     42 O          21.0962   69.6521   -7.9088 O.3     1  UNL1       -0.3794
     43 H          21.9386   69.6654   -8.3837 H       1  UNL1        0.2105
@<TRIPOS>BOND
     1    15    16   ar
     2    15    20   ar
     3    15     6    1
     4    16    17   ar
     5    16    21    2
     6    17    18   ar
     7    17    23    1
     8    18    19   ar
     9    18    22    2
    10    19    20   ar
    11     6     7    1
    12     6    11    1
    13     7     8    1
    14     7     9    1
    15     8    13    1
    16     9    10    1
    17     9    12    1
    18    10    11    1
    19    10     5    1
    20    12    14    1
    21     5     4    1
    22     4     1    1
    23     1     2    2
    24     1     3    1
    25     1    24    1
    26    24    25    1
    27    25    26    2
    28    25    27    1
    29    25    28    1
    30    28    29    1
    31    29    30    1
    32    29    37    1
    33    30    31    1
    34    30    34    1
    35    31    32    1
    36    31    35    1
    37    32    33    1
    38    32    36    1
    39    33    41    1
    40    33    37    1
    41    41    42    1
    42    34    38    1
    43    35    39    1
    44    36    40    1
    45    42    43    1
