@<TRIPOS>MOLECULE
UDP-glaA
 43 45 0 0 0
SMALL
GASTEIGER

@<TRIPOS>ATOM
      1 P          22.9675   72.1420   -3.3842 P.3     1  UNL1        0.2189
      2 O          23.2931   72.8997   -4.7761 O.3     1  UNL1       -0.4371
      3 O          23.5132   70.7480   -3.2797 O.2     1  UNL1       -0.5170
      4 O          21.3637   72.2824   -3.2301 O.3     1  UNL1       -0.3112
      5 C          20.5582   71.1393   -3.4621 C.3     1  UNL1        0.1811
      6 O          18.6666   72.0782   -4.6088 O.3     1  UNL1       -0.3308
      7 O          16.9855   70.8493   -2.4512 O.3     1  UNL1       -0.3794
      8 O          16.6792   69.0953   -4.5165 O.3     1  UNL1       -0.3779
      9 C          18.1732   70.3497   -3.0656 C.3     1  UNL1        0.1713
     10 C          17.8717   69.8507   -4.4630 C.3     1  UNL1        0.1895
     11 C          19.0927   71.5322   -3.3409 C.3     1  UNL1        0.1764
     12 C          17.7769   71.1480   -5.2479 C.3     1  UNL1        0.2383
     13 H          17.2342   71.1926   -1.5761 H       1  UNL1        0.2105
     14 H          16.7805   68.3448   -3.9061 H       1  UNL1        0.2106
     15 O          16.0350   70.3742   -7.3317 O.2     1  UNL1       -0.2464
     16 O          19.4053   70.5706  -10.4687 O.2     1  UNL1       -0.2670
     17 N          18.1721   70.9898   -6.6183 N.ar    1  UNL1       -0.2551
     18 N          17.7145   70.4720   -8.8924 N.ar    1  UNL1       -0.2743
     19 C          17.2198   70.5966   -7.5874 C.ar    1  UNL1        0.3323
     20 C          19.4914   71.2232   -6.9906 C.ar    1  UNL1        0.0869
     21 C          19.9474   71.1006   -8.2391 C.ar    1  UNL1        0.0795
     22 C          19.0175   70.6930   -9.3109 C.ar    1  UNL1        0.2626
     23 H          17.0477   70.1898   -9.6057 H       1  UNL1        0.1734
     24 O          23.5307   73.1710   -2.2711 O.3     1  UNL1       -0.2703
     25 P          23.0219   74.6412   -1.8324 P.3     1  UNL1        0.2208
     26 O          21.5316   74.7195   -2.4561 O.3     1  UNL1       -0.4371
     27 O          23.9308   75.7593   -2.2559 O.2     1  UNL1       -0.5170
     28 O          22.7926   74.5358   -0.2386 O.3     1  UNL1       -0.2858
     29 O          21.4984   72.5769    0.0565 O.3     1  UNL1       -0.3226
     30 O          22.2056   73.7528    3.9803 O.3     1  UNL1       -0.3794
     31 O          21.5742   75.7304    1.9319 O.3     1  UNL1       -0.3775
     32 O          21.1170   71.5542    2.7112 O.3     1  UNL1       -0.3792
     33 C          22.4537   73.5625    2.5902 C.3     1  UNL1        0.1718
     34 C          21.4215   74.3262    1.7537 C.3     1  UNL1        0.1968
     35 C          22.3803   72.0661    2.2743 C.3     1  UNL1        0.1723
     36 C          21.5736   73.9911    0.2648 C.3     1  UNL1        0.2706
     37 C          22.5020   71.8532    0.7669 C.3     1  UNL1        0.1830
     38 H          22.8794   73.2509    4.4699 H       1  UNL1        0.2105
     39 H          20.9080   76.1707    1.3776 H       1  UNL1        0.2106
     40 H          20.4294   71.8632    2.0972 H       1  UNL1        0.2106
     41 O          23.4986   69.7827    0.2943 O.co2   1  UNL1       -0.5466
     42 O          21.2222   69.8801    0.2204 O.co2   1  UNL1       -0.5466
     43 C          22.3059   70.4167    0.3996 C.2     1  UNL1        0.0799
@<TRIPOS>UNITY_ATOM_ATTR
41 1
charge -1
@<TRIPOS>BOND
     1     1     4    1
     2     1    24    1
     3     1     2    1
     4     1     3    2
     5    25    28    1
     6    25    24    1
     7    25    26    1
     8    25    27    2
     9     6    11    1
    10     6    12    1
    11    29    36    1
    12    29    37    1
    13     7     9    1
    14     7    13    1
    15     8    10    1
    16     8    14    1
    17     4     5    1
    18    28    36    1
    19    30    33    1
    20    30    38    1
    21    31    34    1
    22    31    39    1
    23    32    35    1
    24    32    40    1
    25    41    43   ar
    26    15    19    2
    27    42    43   ar
    28    16    22    2
    29    17    12    1
    30    17    19   ar
    31    17    20   ar
    32    18    19   ar
    33    18    22   ar
    34    18    23    1
    35     9    10    1
    36     9    11    1
    37    10    12    1
    38    11     5    1
    39    33    34    1
    40    33    35    1
    41    34    36    1
    42    35    37    1
    43    37    43    1
    44    20    21   ar
    45    21    22   ar
@<TRIPOS>MOLECULE
UDP-glaA
 43 45 0 0 0
SMALL
GASTEIGER

@<TRIPOS>ATOM
      1 P          20.9583   73.7412   -4.9692 P.3     1  UNL1        0.2189
      2 O          19.8360   73.9140   -3.8168 O.3     1  UNL1       -0.4371
      3 O          21.8217   74.9472   -5.1977 O.2     1  UNL1       -0.5170
      4 O          20.1223   73.2219   -6.2526 O.3     1  UNL1       -0.3112
      5 C          20.5006   73.6820   -7.5388 C.3     1  UNL1        0.1811
      6 O          19.8429   71.4245   -8.0343 O.3     1  UNL1       -0.3308
      7 O          18.2243   72.5861  -10.2753 O.3     1  UNL1       -0.3794
      8 O          16.3432   72.1361   -8.3531 O.3     1  UNL1       -0.3779
      9 C          18.4787   73.1176   -8.9750 C.3     1  UNL1        0.1713
     10 C          17.6722   72.3693   -7.9348 C.3     1  UNL1        0.1895
     11 C          19.9076   72.7560   -8.5912 C.3     1  UNL1        0.1764
     12 C          18.4696   71.0855   -7.7804 C.3     1  UNL1        0.2383
     13 H          18.7903   73.0688  -10.9015 H       1  UNL1        0.2105
     14 H          15.9374   73.0012   -8.5348 H       1  UNL1        0.2106
     15 O          16.0972   70.0061   -6.6931 O.2     1  UNL1       -0.2464
     16 O          18.1740   68.9775   -2.7097 O.2     1  UNL1       -0.2670
     17 N          18.3620   70.5285   -6.4622 N.ar    1  UNL1       -0.2551
     18 N          17.1328   69.4951   -4.7101 N.ar    1  UNL1       -0.2743
     19 C          17.1241   70.0131   -6.0119 C.ar    1  UNL1        0.3323
     20 C          19.4755   70.4968   -5.6301 C.ar    1  UNL1        0.0869
     21 C          19.4678   69.9991   -4.3915 C.ar    1  UNL1        0.0795
     22 C          18.2147   69.4420   -3.8448 C.ar    1  UNL1        0.2626
     23 H          16.2536   69.1196   -4.3650 H       1  UNL1        0.1734
     24 O          21.7602   72.4181   -4.4986 O.3     1  UNL1       -0.2703
     25 P          22.9871   72.2344   -3.4625 P.3     1  UNL1        0.2208
     26 O          24.1495   73.1642   -4.0952 O.3     1  UNL1       -0.4371
     27 O          23.3915   70.8061   -3.2337 O.2     1  UNL1       -0.5170
     28 O          22.5183   73.0160   -2.1309 O.3     1  UNL1       -0.2858
     29 O          21.6129   71.3073   -0.7671 O.3     1  UNL1       -0.3226
     30 O          21.4816   74.6026    1.7633 O.3     1  UNL1       -0.3794
     31 O          20.7778   74.8693   -1.0544 O.3     1  UNL1       -0.3775
     32 O          21.0550   71.8829    1.9890 O.3     1  UNL1       -0.3792
     33 C          21.9658   73.7384    0.7391 C.3     1  UNL1        0.1718
     34 C          20.9372   73.6199   -0.3906 C.3     1  UNL1        0.1968
     35 C          22.2408   72.3590    1.3440 C.3     1  UNL1        0.1723
     36 C          21.3720   72.5620   -1.4125 C.3     1  UNL1        0.2706
     37 C          22.6245   71.3801    0.2365 C.3     1  UNL1        0.1830
     38 H          22.1621   74.6459    2.4566 H       1  UNL1        0.2105
     39 H          20.1266   74.7430   -1.7649 H       1  UNL1        0.2106
     40 H          20.4181   71.6142    1.3053 H       1  UNL1        0.2106
     41 O          23.4225   69.9967    1.9549 O.co2   1  UNL1       -0.5466
     42 O          22.3729   68.9790    0.2057 O.co2   1  UNL1       -0.5466
     43 C          22.7763   69.9889    0.7641 C.2     1  UNL1        0.0799
@<TRIPOS>UNITY_ATOM_ATTR
41 1
charge -1
@<TRIPOS>BOND
     1     1     4    1
     2     1    24    1
     3     1     2    1
     4     1     3    2
     5    25    28    1
     6    25    24    1
     7    25    26    1
     8    25    27    2
     9     6    11    1
    10     6    12    1
    11    29    36    1
    12    29    37    1
    13     7     9    1
    14     7    13    1
    15     8    10    1
    16     8    14    1
    17     4     5    1
    18    28    36    1
    19    30    33    1
    20    30    38    1
    21    31    34    1
    22    31    39    1
    23    32    35    1
    24    32    40    1
    25    41    43   ar
    26    15    19    2
    27    42    43   ar
    28    16    22    2
    29    17    12    1
    30    17    19   ar
    31    17    20   ar
    32    18    19   ar
    33    18    22   ar
    34    18    23    1
    35     9    10    1
    36     9    11    1
    37    10    12    1
    38    11     5    1
    39    33    34    1
    40    33    35    1
    41    34    36    1
    42    35    37    1
    43    37    43    1
    44    20    21   ar
    45    21    22   ar
@<TRIPOS>MOLECULE
UDP-glaA
 43 45 0 0 0
SMALL
GASTEIGER

@<TRIPOS>ATOM
      1 P          22.9519   71.6565   -2.8613 P.3     1  UNL1        0.2189
      2 O          23.7811   72.9624   -3.3349 O.3     1  UNL1       -0.4371
      3 O          23.5852   70.3424   -3.2139 O.2     1  UNL1       -0.5170
      4 O          21.4668   71.9021   -3.4525 O.3     1  UNL1       -0.3112
      5 C          20.5887   70.7946   -3.5601 C.3     1  UNL1        0.1811
      6 O          18.7627   71.8885   -4.6752 O.3     1  UNL1       -0.3308
      7 O          17.0074   70.7253   -2.5405 O.3     1  UNL1       -0.3794
      8 O          16.5757   69.0474   -4.6462 O.3     1  UNL1       -0.3779
      9 C          18.1563   70.1607   -3.1721 C.3     1  UNL1        0.1713
     10 C          17.8173   69.7179   -4.5798 C.3     1  UNL1        0.1895
     11 C          19.1540   71.2838   -3.4228 C.3     1  UNL1        0.1764
     12 C          17.8095   71.0374   -5.3326 C.3     1  UNL1        0.2383
     13 H          17.2815   71.0293   -1.6585 H       1  UNL1        0.2105
     14 H          16.6270   68.2771   -4.0546 H       1  UNL1        0.2106
     15 O          16.0123   70.4387   -7.4271 O.2     1  UNL1       -0.2464
     16 O          19.3798   70.4776  -10.5732 O.2     1  UNL1       -0.2670
     17 N          18.1891   70.8861   -6.7082 N.ar    1  UNL1       -0.2551
     18 N          17.6904   70.4580   -8.9923 N.ar    1  UNL1       -0.2743
     19 C          17.2091   70.5843   -7.6825 C.ar    1  UNL1        0.3323
     20 C          19.5204   71.0363   -7.0804 C.ar    1  UNL1        0.0869
     21 C          19.9634   70.9132   -8.3336 C.ar    1  UNL1        0.0795
     22 C          19.0045   70.5980   -9.4110 C.ar    1  UNL1        0.2626
     23 H          17.0036   70.2406   -9.7093 H       1  UNL1        0.1734
     24 O          22.7573   71.9063   -1.2754 O.3     1  UNL1       -0.2703
     25 P          22.4203   70.8791   -0.0738 P.3     1  UNL1        0.2208
     26 O          23.6854   69.8714   -0.0812 O.3     1  UNL1       -0.4371
     27 O          21.0864   70.2005   -0.1995 O.2     1  UNL1       -0.5170
     28 O          22.6005   71.7510    1.2721 O.3     1  UNL1       -0.2858
     29 O          21.7374   72.4635    3.3569 O.3     1  UNL1       -0.3226
     30 O          21.2050   75.8414    0.9935 O.3     1  UNL1       -0.3794
     31 O          20.6644   73.1832   -0.0779 O.3     1  UNL1       -0.3775
     32 O          20.9645   75.2098    3.6718 O.3     1  UNL1       -0.3792
     33 C          21.8151   74.6498    1.4814 C.3     1  UNL1        0.1718
     34 C          20.8719   73.4551    1.3040 C.3     1  UNL1        0.1968
     35 C          22.1511   74.8365    2.9635 C.3     1  UNL1        0.1723
     36 C          21.4471   72.2040    1.9795 C.3     1  UNL1        0.2706
     37 C          22.6750   73.5232    3.5404 C.3     1  UNL1        0.1830
     38 H          21.8349   76.5698    1.1279 H       1  UNL1        0.2105
     39 H          20.0707   72.4160   -0.1401 H       1  UNL1        0.2106
     40 H          20.3939   74.4269    3.7527 H       1  UNL1        0.2106
     41 O          22.2829   72.5996    5.6610 O.co2   1  UNL1       -0.5466
     42 O          23.5374   74.5010    5.5726 O.co2   1  UNL1       -0.5466
     43 C          22.8941   73.6227    5.0166 C.2     1  UNL1        0.0799
@<TRIPOS>UNITY_ATOM_ATTR
41 1
charge -1
@<TRIPOS>BOND
     1     1     4    1
     2     1    24    1
     3     1     2    1
     4     1     3    2
     5    25    28    1
     6    25    24    1
     7    25    26    1
     8    25    27    2
     9     6    11    1
    10     6    12    1
    11    29    36    1
    12    29    37    1
    13     7     9    1
    14     7    13    1
    15     8    10    1
    16     8    14    1
    17     4     5    1
    18    28    36    1
    19    30    33    1
    20    30    38    1
    21    31    34    1
    22    31    39    1
    23    32    35    1
    24    32    40    1
    25    41    43   ar
    26    15    19    2
    27    42    43   ar
    28    16    22    2
    29    17    12    1
    30    17    19   ar
    31    17    20   ar
    32    18    19   ar
    33    18    22   ar
    34    18    23    1
    35     9    10    1
    36     9    11    1
    37    10    12    1
    38    11     5    1
    39    33    34    1
    40    33    35    1
    41    34    36    1
    42    35    37    1
    43    37    43    1
    44    20    21   ar
    45    21    22   ar
@<TRIPOS>MOLECULE
UDP-glaA
 43 45 0 0 0
SMALL
GASTEIGER

@<TRIPOS>ATOM
      1 P          22.9136   71.3786   -2.2418 P.3     1  UNL1        0.2189
      2 O          23.2324   72.9632   -2.1717 O.3     1  UNL1       -0.4371
      3 O          23.5975   70.6441   -3.3575 O.2     1  UNL1       -0.5170
      4 O          21.2979   71.3056   -2.2387 O.3     1  UNL1       -0.3112
      5 C          20.6294   71.0426   -3.4606 C.3     1  UNL1        0.1811
      6 O          18.7627   72.0318   -4.6057 O.3     1  UNL1       -0.3308
      7 O          17.0538   70.8694   -2.4332 O.3     1  UNL1       -0.3794
      8 O          16.6848   69.1123   -4.4856 O.3     1  UNL1       -0.3779
      9 C          18.2229   70.3294   -3.0491 C.3     1  UNL1        0.1713
     10 C          17.9002   69.8309   -4.4419 C.3     1  UNL1        0.1895
     11 C          19.1772   71.4812   -3.3360 C.3     1  UNL1        0.1764
     12 C          17.8420   71.1254   -5.2350 C.3     1  UNL1        0.2383
     13 H          17.3168   71.2106   -1.5615 H       1  UNL1        0.2105
     14 H          16.7655   68.3630   -3.8706 H       1  UNL1        0.2106
     15 O          16.0696   70.3846   -7.3051 O.2     1  UNL1       -0.2464
     16 O          19.4293   70.4646  -10.4586 O.2     1  UNL1       -0.2670
     17 N          18.2263   70.9461   -6.6060 N.ar    1  UNL1       -0.2551
     18 N          17.7439   70.4244   -8.8740 N.ar    1  UNL1       -0.2743
     19 C          17.2589   70.5722   -7.5678 C.ar    1  UNL1        0.3323
     20 C          19.5497   71.1403   -6.9859 C.ar    1  UNL1        0.0869
     21 C          19.9963   70.9959   -8.2355 C.ar    1  UNL1        0.0795
     22 C          19.0505   70.6062   -9.3000 C.ar    1  UNL1        0.2626
     23 H          17.0662   70.1554   -9.5821 H       1  UNL1        0.1734
     24 O          23.3031   70.8647   -0.7588 O.3     1  UNL1       -0.2703
     25 P          22.3744   70.4447    0.4957 P.3     1  UNL1        0.2208
     26 O          23.4497   70.0488    1.6373 O.3     1  UNL1       -0.4371
     27 O          21.3728   69.3688    0.1876 O.2     1  UNL1       -0.5170
     28 O          21.7271   71.8313    1.0077 O.3     1  UNL1       -0.2858
     29 O          23.1936   73.6346    1.4516 O.3     1  UNL1       -0.3226
     30 O          19.6832   74.8947    3.2869 O.3     1  UNL1       -0.3794
     31 O          20.5440   72.1153    3.4861 O.3     1  UNL1       -0.3775
     32 O          22.1470   75.9975    2.7006 O.3     1  UNL1       -0.3792
     33 C          20.5190   74.2521    2.3284 C.3     1  UNL1        0.1718
     34 C          21.3693   73.1693    3.0015 C.3     1  UNL1        0.1968
     35 C          21.4253   75.3015    1.6789 C.3     1  UNL1        0.1723
     36 C          22.3923   72.5912    2.0158 C.3     1  UNL1        0.2706
     37 C          22.4257   74.6132    0.7528 C.3     1  UNL1        0.1830
     38 H          19.1664   75.5721    2.8182 H       1  UNL1        0.2105
     39 H          21.1252   71.4514    3.8939 H       1  UNL1        0.2106
     40 H          22.8377   75.4077    3.0472 H       1  UNL1        0.2106
     41 O          22.8370   76.7955   -0.0035 O.co2   1  UNL1       -0.5466
     42 O          24.5869   75.3350   -0.0457 O.co2   1  UNL1       -0.5466
     43 C          23.4153   75.5866    0.1959 C.2     1  UNL1        0.0799
@<TRIPOS>UNITY_ATOM_ATTR
41 1
charge -1
@<TRIPOS>BOND
     1     1     4    1
     2     1    24    1
     3     1     2    1
     4     1     3    2
     5    25    28    1
     6    25    24    1
     7    25    26    1
     8    25    27    2
     9     6    11    1
    10     6    12    1
    11    29    36    1
    12    29    37    1
    13     7     9    1
    14     7    13    1
    15     8    10    1
    16     8    14    1
    17     4     5    1
    18    28    36    1
    19    30    33    1
    20    30    38    1
    21    31    34    1
    22    31    39    1
    23    32    35    1
    24    32    40    1
    25    41    43   ar
    26    15    19    2
    27    42    43   ar
    28    16    22    2
    29    17    12    1
    30    17    19   ar
    31    17    20   ar
    32    18    19   ar
    33    18    22   ar
    34    18    23    1
    35     9    10    1
    36     9    11    1
    37    10    12    1
    38    11     5    1
    39    33    34    1
    40    33    35    1
    41    34    36    1
    42    35    37    1
    43    37    43    1
    44    20    21   ar
    45    21    22   ar
@<TRIPOS>MOLECULE
UDP-glaA
 43 45 0 0 0
SMALL
GASTEIGER

@<TRIPOS>ATOM
      1 P          22.6380   71.0707   -1.9761 P.3     1  UNL1        0.2189
      2 O          23.5252   70.5960   -3.2429 O.3     1  UNL1       -0.4371
      3 O          23.0218   70.4481   -0.6657 O.2     1  UNL1       -0.5170
      4 O          21.1129   70.8213   -2.4529 O.3     1  UNL1       -0.3112
      5 C          20.6620   71.4531   -3.6390 C.3     1  UNL1        0.1811
      6 O          18.6890   72.2075   -4.7846 O.3     1  UNL1       -0.3308
      7 O          17.1421   71.0529   -2.4900 O.3     1  UNL1       -0.3794
      8 O          16.8690   69.1405   -4.4145 O.3     1  UNL1       -0.3779
      9 C          18.3360   70.5721   -3.1072 C.3     1  UNL1        0.1713
     10 C          18.0200   69.9584   -4.4549 C.3     1  UNL1        0.1895
     11 C          19.1818   71.7775   -3.4964 C.3     1  UNL1        0.1764
     12 C          17.8319   71.1888   -5.3259 C.3     1  UNL1        0.2383
     13 H          17.3981   71.4711   -1.6503 H       1  UNL1        0.2105
     14 H          17.0289   68.4424   -3.7563 H       1  UNL1        0.2106
     15 O          16.0341   70.3259   -7.3256 O.2     1  UNL1       -0.2464
     16 O          19.3335   70.3119  -10.5431 O.2     1  UNL1       -0.2670
     17 N          18.1938   70.9523   -6.6943 N.ar    1  UNL1       -0.2551
     18 N          17.6784   70.3190   -8.9263 N.ar    1  UNL1       -0.2743
     19 C          17.2152   70.5195   -7.6193 C.ar    1  UNL1        0.3323
     20 C          19.5067   71.1491   -7.1079 C.ar    1  UNL1        0.0869
     21 C          19.9326   70.9541   -8.3579 C.ar    1  UNL1        0.0795
     22 C          18.9738   70.5010   -9.3851 C.ar    1  UNL1        0.2626
     23 H          16.9923   70.0071   -9.6083 H       1  UNL1        0.1734
     24 O          22.7738   72.6815   -2.0218 O.3     1  UNL1       -0.2703
     25 P          23.5113   73.6537   -3.0819 P.3     1  UNL1        0.2208
     26 O          22.4651   74.8750   -3.2554 O.3     1  UNL1       -0.4371
     27 O          23.8985   72.9816   -4.3680 O.2     1  UNL1       -0.5170
     28 O          24.7481   74.2886   -2.2628 O.3     1  UNL1       -0.2858
     29 O          25.1853   76.4131   -1.3169 O.3     1  UNL1       -0.3226
     30 O          28.8975   75.3705   -2.8699 O.3     1  UNL1       -0.3794
     31 O          26.4565   74.8159   -4.3666 O.3     1  UNL1       -0.3775
     32 O          27.8890   77.3751   -1.2592 O.3     1  UNL1       -0.3792
     33 C          27.6187   75.1961   -2.2662 C.3     1  UNL1        0.1718
     34 C          26.5105   75.6569   -3.2191 C.3     1  UNL1        0.1968
     35 C          27.5675   76.0104   -0.9706 C.3     1  UNL1        0.1723
     36 C          25.1468   75.6348   -2.5176 C.3     1  UNL1        0.2706
     37 C          26.1594   75.9511   -0.3824 C.3     1  UNL1        0.1830
     38 H          29.5666   75.0690   -2.2320 H       1  UNL1        0.2105
     39 H          25.7367   75.1395   -4.9339 H       1  UNL1        0.2106
     40 H          27.1314   77.7816   -1.7128 H       1  UNL1        0.2106
     41 O          25.5544   78.0560    0.4585 O.co2   1  UNL1       -0.5466
     42 O          26.3063   76.5150    1.9607 O.co2   1  UNL1       -0.5466
     43 C          26.0287   76.8380    0.8148 C.2     1  UNL1        0.0799
@<TRIPOS>UNITY_ATOM_ATTR
41 1
charge -1
@<TRIPOS>BOND
     1     1     4    1
     2     1    24    1
     3     1     2    1
     4     1     3    2
     5    25    28    1
     6    25    24    1
     7    25    26    1
     8    25    27    2
     9     6    11    1
    10     6    12    1
    11    29    36    1
    12    29    37    1
    13     7     9    1
    14     7    13    1
    15     8    10    1
    16     8    14    1
    17     4     5    1
    18    28    36    1
    19    30    33    1
    20    30    38    1
    21    31    34    1
    22    31    39    1
    23    32    35    1
    24    32    40    1
    25    41    43   ar
    26    15    19    2
    27    42    43   ar
    28    16    22    2
    29    17    12    1
    30    17    19   ar
    31    17    20   ar
    32    18    19   ar
    33    18    22   ar
    34    18    23    1
    35     9    10    1
    36     9    11    1
    37    10    12    1
    38    11     5    1
    39    33    34    1
    40    33    35    1
    41    34    36    1
    42    35    37    1
    43    37    43    1
    44    20    21   ar
    45    21    22   ar
@<TRIPOS>MOLECULE
UDP-glaA
 43 45 0 0 0
SMALL
GASTEIGER

@<TRIPOS>ATOM
      1 P          22.9034   72.0192   -3.0483 P.3     1  UNL1        0.2189
      2 O          23.5881   70.5718   -3.2796 O.3     1  UNL1       -0.4371
      3 O          22.8400   72.4682   -1.6177 O.2     1  UNL1       -0.5170
      4 O          21.4827   71.9049   -3.8127 O.3     1  UNL1       -0.3112
      5 C          20.6503   70.7923   -3.5325 C.3     1  UNL1        0.1811
      6 O          18.8082   71.8790   -4.6278 O.3     1  UNL1       -0.3308
      7 O          17.0788   70.6995   -2.4808 O.3     1  UNL1       -0.3794
      8 O          16.6376   69.0254   -4.5875 O.3     1  UNL1       -0.3779
      9 C          18.2252   70.1433   -3.1244 C.3     1  UNL1        0.1713
     10 C          17.8760   69.7027   -4.5303 C.3     1  UNL1        0.1895
     11 C          19.2141   71.2729   -3.3808 C.3     1  UNL1        0.1764
     12 C          17.8538   71.0244   -5.2791 C.3     1  UNL1        0.2383
     13 H          17.3593   71.0025   -1.6003 H       1  UNL1        0.2105
     14 H          16.6987   68.2536   -3.9986 H       1  UNL1        0.2106
     15 O          16.0356   70.4577   -7.3643 O.2     1  UNL1       -0.2464
     16 O          19.3799   70.4870  -10.5350 O.2     1  UNL1       -0.2670
     17 N          18.2218   70.8792   -6.6585 N.ar    1  UNL1       -0.2551
     18 N          17.7022   70.4722   -8.9418 N.ar    1  UNL1       -0.2743
     19 C          17.2318   70.5937   -7.6276 C.ar    1  UNL1        0.3323
     20 C          19.5517   71.0194   -7.0396 C.ar    1  UNL1        0.0869
     21 C          19.9843   70.9011   -8.2968 C.ar    1  UNL1        0.0795
     22 C          19.0145   70.6027   -9.3692 C.ar    1  UNL1        0.2626
     23 H          17.0081   70.2664   -9.6552 H       1  UNL1        0.1734
     24 O          23.7618   72.9856   -4.0201 O.3     1  UNL1       -0.2703
     25 P          23.3946   74.4078   -4.6946 P.3     1  UNL1        0.2208
     26 O          22.3899   75.0798   -3.6198 O.3     1  UNL1       -0.4371
     27 O          22.8361   74.3043   -6.0849 O.2     1  UNL1       -0.5170
     28 O          24.7508   75.2752   -4.5838 O.3     1  UNL1       -0.2858
     29 O          26.8983   74.5812   -3.8726 O.3     1  UNL1       -0.3226
     30 O          26.8536   78.5788   -2.7341 O.3     1  UNL1       -0.3794
     31 O          24.4897   76.9090   -2.3735 O.3     1  UNL1       -0.3775
     32 O          28.7209   76.5464   -2.8457 O.3     1  UNL1       -0.3792
     33 C          26.5720   77.4220   -3.5170 C.3     1  UNL1        0.1718
     34 C          25.7799   76.3999   -2.6946 C.3     1  UNL1        0.1968
     35 C          27.8939   76.8068   -3.9846 C.3     1  UNL1        0.1723
     36 C          25.6210   75.0856   -3.4690 C.3     1  UNL1        0.2706
     37 C          27.6199   75.4882   -4.7047 C.3     1  UNL1        0.1830
     38 H          27.3568   79.1956   -3.2925 H       1  UNL1        0.2105
     39 H          24.0235   76.2259   -1.8628 H       1  UNL1        0.2106
     40 H          28.3636   75.7748   -2.3744 H       1  UNL1        0.2106
     41 O          29.4113   74.1545   -3.9866 O.co2   1  UNL1       -0.5466
     42 O          29.3957   74.7792   -6.1790 O.co2   1  UNL1       -0.5466
     43 C          28.8909   74.7874   -5.0656 C.2     1  UNL1        0.0799
@<TRIPOS>UNITY_ATOM_ATTR
41 1
charge -1
@<TRIPOS>BOND
     1     1     4    1
     2     1    24    1
     3     1     2    1
     4     1     3    2
     5    25    28    1
     6    25    24    1
     7    25    26    1
     8    25    27    2
     9     6    11    1
    10     6    12    1
    11    29    36    1
    12    29    37    1
    13     7     9    1
    14     7    13    1
    15     8    10    1
    16     8    14    1
    17     4     5    1
    18    28    36    1
    19    30    33    1
    20    30    38    1
    21    31    34    1
    22    31    39    1
    23    32    35    1
    24    32    40    1
    25    41    43   ar
    26    15    19    2
    27    42    43   ar
    28    16    22    2
    29    17    12    1
    30    17    19   ar
    31    17    20   ar
    32    18    19   ar
    33    18    22   ar
    34    18    23    1
    35     9    10    1
    36     9    11    1
    37    10    12    1
    38    11     5    1
    39    33    34    1
    40    33    35    1
    41    34    36    1
    42    35    37    1
    43    37    43    1
    44    20    21   ar
    45    21    22   ar
@<TRIPOS>MOLECULE
UDP-glaA
 43 45 0 0 0
SMALL
GASTEIGER

@<TRIPOS>ATOM
      1 P          21.6168   73.0668   -6.0267 P.3     1  UNL1        0.2189
      2 O          21.4719   74.6133   -5.5743 O.3     1  UNL1       -0.4371
      3 O          22.7794   72.7780   -6.9306 O.2     1  UNL1       -0.5170
      4 O          20.1579   72.6952   -6.6175 O.3     1  UNL1       -0.3112
      5 C          19.4277   71.6443   -6.0079 C.3     1  UNL1        0.1811
      6 O          17.2435   71.8626   -6.9855 O.3     1  UNL1       -0.3308
      7 O          18.2737   70.1408   -9.2138 O.3     1  UNL1       -0.3794
      8 O          18.4079   72.6448  -10.2852 O.3     1  UNL1       -0.3779
      9 C          18.9550   71.1401   -8.4556 C.3     1  UNL1        0.1713
     10 C          18.5033   72.5212   -8.8812 C.3     1  UNL1        0.1895
     11 C          18.4491   71.0674   -7.0209 C.3     1  UNL1        0.1764
     12 C          17.1547   72.6387   -8.1917 C.3     1  UNL1        0.2383
     13 H          18.5653   69.2751   -8.8804 H       1  UNL1        0.2105
     14 H          19.2853   72.4486  -10.6566 H       1  UNL1        0.2106
     15 O          14.6040   73.8012   -8.5358 O.2     1  UNL1       -0.2464
     16 O          16.0214   77.8512   -6.8545 O.2     1  UNL1       -0.2670
     17 N          16.8290   73.9944   -7.8520 N.ar    1  UNL1       -0.2551
     18 N          15.3116   75.8173   -7.6988 N.ar    1  UNL1       -0.2743
     19 C          15.5180   74.4808   -8.0651 C.ar    1  UNL1        0.3323
     20 C          17.8036   74.8274   -7.3138 C.ar    1  UNL1        0.0869
     21 C          17.5911   76.0994   -6.9693 C.ar    1  UNL1        0.0795
     22 C          16.2493   76.6849   -7.1605 C.ar    1  UNL1        0.2626
     23 H          14.3766   76.1886   -7.8438 H       1  UNL1        0.1734
     24 O          21.6487   72.2779   -4.6154 O.3     1  UNL1       -0.2703
     25 P          22.8329   72.0922   -3.5311 P.3     1  UNL1        0.2208
     26 O          24.0232   73.0158   -4.1197 O.3     1  UNL1       -0.4371
     27 O          23.2222   70.6630   -3.2828 O.2     1  UNL1       -0.5170
     28 O          22.3150   72.8793   -2.2210 O.3     1  UNL1       -0.2858
     29 O          21.5696   71.1949   -0.7356 O.3     1  UNL1       -0.3226
     30 O          21.0564   74.6428    1.5290 O.3     1  UNL1       -0.3794
     31 O          20.3746   74.6174   -1.3066 O.3     1  UNL1       -0.3775
     32 O          20.9102   71.9187    1.9626 O.3     1  UNL1       -0.3792
     33 C          21.6440   73.7579    0.5792 C.3     1  UNL1        0.1718
     34 C          20.6517   73.4462   -0.5461 C.3     1  UNL1        0.1968
     35 C          22.0507   72.4653    1.2922 C.3     1  UNL1        0.1723
     36 C          21.2105   72.3643   -1.4788 C.3     1  UNL1        0.2706
     37 C          22.5517   71.4499    0.2674 C.3     1  UNL1        0.1830
     38 H          21.7173   74.8100    2.2223 H       1  UNL1        0.2105
     39 H          19.7516   74.3696   -2.0104 H       1  UNL1        0.2106
     40 H          20.3159   71.5332    1.2968 H       1  UNL1        0.2106
     41 O          22.3495   69.1158    0.1451 O.co2   1  UNL1       -0.5466
     42 O          23.4337   69.9703    1.9593 O.co2   1  UNL1       -0.5466
     43 C          22.8383   70.1268    0.9032 C.2     1  UNL1        0.0799
@<TRIPOS>UNITY_ATOM_ATTR
41 1
charge -1
@<TRIPOS>BOND
     1     1     4    1
     2     1    24    1
     3     1     2    1
     4     1     3    2
     5    25    28    1
     6    25    24    1
     7    25    26    1
     8    25    27    2
     9     6    11    1
    10     6    12    1
    11    29    36    1
    12    29    37    1
    13     7     9    1
    14     7    13    1
    15     8    10    1
    16     8    14    1
    17     4     5    1
    18    28    36    1
    19    30    33    1
    20    30    38    1
    21    31    34    1
    22    31    39    1
    23    32    35    1
    24    32    40    1
    25    41    43   ar
    26    15    19    2
    27    42    43   ar
    28    16    22    2
    29    17    12    1
    30    17    19   ar
    31    17    20   ar
    32    18    19   ar
    33    18    22   ar
    34    18    23    1
    35     9    10    1
    36     9    11    1
    37    10    12    1
    38    11     5    1
    39    33    34    1
    40    33    35    1
    41    34    36    1
    42    35    37    1
    43    37    43    1
    44    20    21   ar
    45    21    22   ar
@<TRIPOS>MOLECULE
UDP-glaA
 43 45 0 0 0
SMALL
GASTEIGER

@<TRIPOS>ATOM
      1 P          20.3998   70.3451   -2.4345 P.3     1  UNL1        0.2189
      2 O          21.6821   69.8301   -3.2759 O.3     1  UNL1       -0.4371
      3 O          19.4179   69.2743   -2.0585 O.2     1  UNL1       -0.5170
      4 O          19.8097   71.5580   -3.3268 O.3     1  UNL1       -0.3112
      5 C          20.7207   72.4006   -4.0118 C.3     1  UNL1        0.1811
      6 O          20.1009   73.8962   -5.7875 O.3     1  UNL1       -0.3308
      7 O          18.1219   75.0640   -3.8610 O.3     1  UNL1       -0.3794
      8 O          16.5635   73.4490   -5.4099 O.3     1  UNL1       -0.3779
      9 C          18.5388   73.7076   -4.0164 C.3     1  UNL1        0.1713
     10 C          17.9273   73.1100   -5.2660 C.3     1  UNL1        0.1895
     11 C          20.0232   73.7086   -4.3571 C.3     1  UNL1        0.1764
     12 C          18.7961   73.7077   -6.3596 C.3     1  UNL1        0.2383
     13 H          18.5681   75.4157   -3.0719 H       1  UNL1        0.2105
     14 H          16.0968   73.1264   -4.6198 H       1  UNL1        0.2106
     15 O          18.2439   74.5017   -9.0129 O.2     1  UNL1       -0.2464
     16 O          19.2546   70.3210  -10.6680 O.2     1  UNL1       -0.2670
     17 N          18.9072   72.8477   -7.5029 N.ar    1  UNL1       -0.2551
     18 N          18.7471   72.4192   -9.8352 N.ar    1  UNL1       -0.2743
     19 C          18.6057   73.3444   -8.7926 C.ar    1  UNL1        0.3323
     20 C          19.3110   71.5271   -7.3404 C.ar    1  UNL1        0.0869
     21 C          19.4414   70.6575   -8.3446 C.ar    1  UNL1        0.0795
     22 C          19.1451   71.0960   -9.7228 C.ar    1  UNL1        0.2626
     23 H          18.5350   72.7541  -10.7712 H       1  UNL1        0.1734
     24 O          21.0735   71.1116   -1.1801 O.3     1  UNL1       -0.2703
     25 P          22.0913   70.5869   -0.0392 P.3     1  UNL1        0.2208
     26 O          23.4840   70.4026   -0.8407 O.3     1  UNL1       -0.4371
     27 O          21.6245   69.3560    0.6838 O.2     1  UNL1       -0.5170
     28 O          22.3341   71.8672    0.9125 O.3     1  UNL1       -0.2858
     29 O          21.0169   72.7650    2.6613 O.3     1  UNL1       -0.3226
     30 O          22.7241   76.1793    1.0159 O.3     1  UNL1       -0.3794
     31 O          21.7571   74.0307   -0.7029 O.3     1  UNL1       -0.3775
     32 O          21.2142   75.5681    3.2467 O.3     1  UNL1       -0.3792
     33 C          22.6176   74.8197    1.4286 C.3     1  UNL1        0.1718
     34 C          21.4699   74.1247    0.6884 C.3     1  UNL1        0.1968
     35 C          22.3679   74.7787    2.9387 C.3     1  UNL1        0.1723
     36 C          21.2369   72.7158    1.2478 C.3     1  UNL1        0.2706
     37 C          22.1094   73.3389    3.3773 C.3     1  UNL1        0.1830
     38 H          23.4595   76.5793    1.5105 H       1  UNL1        0.2105
     39 H          21.0092   73.5769   -1.1268 H       1  UNL1        0.2106
     40 H          20.4223   75.0834    2.9582 H       1  UNL1        0.2106
     41 O          20.4165   73.5419    4.9886 O.co2   1  UNL1       -0.5466
     42 O          22.4997   72.9937    5.7349 O.co2   1  UNL1       -0.5466
     43 C          21.7326   73.2664    4.8229 C.2     1  UNL1        0.0799
@<TRIPOS>UNITY_ATOM_ATTR
41 1
charge -1
@<TRIPOS>BOND
     1     1     4    1
     2     1    24    1
     3     1     2    1
     4     1     3    2
     5    25    28    1
     6    25    24    1
     7    25    26    1
     8    25    27    2
     9     6    11    1
    10     6    12    1
    11    29    36    1
    12    29    37    1
    13     7     9    1
    14     7    13    1
    15     8    10    1
    16     8    14    1
    17     4     5    1
    18    28    36    1
    19    30    33    1
    20    30    38    1
    21    31    34    1
    22    31    39    1
    23    32    35    1
    24    32    40    1
    25    41    43   ar
    26    15    19    2
    27    42    43   ar
    28    16    22    2
    29    17    12    1
    30    17    19   ar
    31    17    20   ar
    32    18    19   ar
    33    18    22   ar
    34    18    23    1
    35     9    10    1
    36     9    11    1
    37    10    12    1
    38    11     5    1
    39    33    34    1
    40    33    35    1
    41    34    36    1
    42    35    37    1
    43    37    43    1
    44    20    21   ar
    45    21    22   ar
@<TRIPOS>MOLECULE
UDP-glaA
 43 45 0 0 0
SMALL
GASTEIGER

@<TRIPOS>ATOM
      1 P          20.1892   72.9370   -3.9020 P.3     1  UNL1        0.2189
      2 O          18.9213   71.9325   -3.8721 O.3     1  UNL1       -0.4371
      3 O          20.2117   73.9607   -2.8048 O.2     1  UNL1       -0.5170
      4 O          20.1872   73.5224   -5.4096 O.3     1  UNL1       -0.3112
      5 C          20.7914   74.7823   -5.6479 C.3     1  UNL1        0.1811
      6 O          20.4721   73.8044   -7.8195 O.3     1  UNL1       -0.3308
      7 O          20.3790   76.6133   -8.8647 O.3     1  UNL1       -0.3794
      8 O          17.7419   75.9267   -8.7668 O.3     1  UNL1       -0.3779
      9 C          19.8851   76.0918   -7.6311 C.3     1  UNL1        0.1713
     10 C          18.6246   75.2872   -7.8682 C.3     1  UNL1        0.1895
     11 C          20.8587   75.0243   -7.1491 C.3     1  UNL1        0.1764
     12 C          19.1800   73.9860   -8.4217 C.3     1  UNL1        0.2383
     13 H          21.2057   77.0866   -8.6690 H       1  UNL1        0.2105
     14 H          17.5202   76.7959   -8.3906 H       1  UNL1        0.2106
     15 O          19.2539   71.5165   -9.7898 O.2     1  UNL1       -0.2464
     16 O          15.9587   69.7258   -7.1114 O.2     1  UNL1       -0.2670
     17 N          18.3531   72.8573   -8.1027 N.ar    1  UNL1       -0.2551
     18 N          17.6126   70.6266   -8.4555 N.ar    1  UNL1       -0.2743
     19 C          18.4677   71.6632   -8.8522 C.ar    1  UNL1        0.3323
     20 C          17.4403   72.9403   -7.0571 C.ar    1  UNL1        0.0869
     21 C          16.6324   71.9429   -6.6908 C.ar    1  UNL1        0.0795
     22 C          16.6885   70.6620   -7.4228 C.ar    1  UNL1        0.2626
     23 H          17.6772   69.7588   -8.9807 H       1  UNL1        0.1734
     24 O          21.4519   71.9267   -3.9065 O.3     1  UNL1       -0.2703
     25 P          21.8607   70.7361   -2.8926 P.3     1  UNL1        0.2208
     26 O          23.4677   70.6473   -3.0533 O.3     1  UNL1       -0.4371
     27 O          21.1404   69.4417   -3.1403 O.2     1  UNL1       -0.5170
     28 O          21.6311   71.3557   -1.4204 O.3     1  UNL1       -0.2858
     29 O          23.2414   72.8338   -0.5141 O.3     1  UNL1       -0.3226
     30 O          21.0996   71.7015    2.8638 O.3     1  UNL1       -0.3794
     31 O          21.7791   69.7410    0.8142 O.3     1  UNL1       -0.3775
     32 O          23.0569   73.5541    2.2582 O.3     1  UNL1       -0.3792
     33 C          21.3421   72.0316    1.4990 C.3     1  UNL1        0.1718
     34 C          22.3408   71.0475    0.8805 C.3     1  UNL1        0.1968
     35 C          21.8969   73.4568    1.4253 C.3     1  UNL1        0.1723
     36 C          22.7390   71.4935   -0.5319 C.3     1  UNL1        0.2706
     37 C          22.2965   73.7782   -0.0132 C.3     1  UNL1        0.1830
     38 H          20.4656   72.3502    3.2143 H       1  UNL1        0.2105
     39 H          22.4419   69.1570    0.4086 H       1  UNL1        0.2106
     40 H          23.7916   73.0925    1.8198 H       1  UNL1        0.2106
     41 O          23.5454   75.4444    1.0673 O.co2   1  UNL1       -0.5466
     42 O          22.9879   75.8139   -1.1120 O.co2   1  UNL1       -0.5466
     43 C          22.9635   75.1133   -0.1106 C.2     1  UNL1        0.0799
@<TRIPOS>UNITY_ATOM_ATTR
41 1
charge -1
@<TRIPOS>BOND
     1     1     4    1
     2     1    24    1
     3     1     2    1
     4     1     3    2
     5    25    28    1
     6    25    24    1
     7    25    26    1
     8    25    27    2
     9     6    11    1
    10     6    12    1
    11    29    36    1
    12    29    37    1
    13     7     9    1
    14     7    13    1
    15     8    10    1
    16     8    14    1
    17     4     5    1
    18    28    36    1
    19    30    33    1
    20    30    38    1
    21    31    34    1
    22    31    39    1
    23    32    35    1
    24    32    40    1
    25    41    43   ar
    26    15    19    2
    27    42    43   ar
    28    16    22    2
    29    17    12    1
    30    17    19   ar
    31    17    20   ar
    32    18    19   ar
    33    18    22   ar
    34    18    23    1
    35     9    10    1
    36     9    11    1
    37    10    12    1
    38    11     5    1
    39    33    34    1
    40    33    35    1
    41    34    36    1
    42    35    37    1
    43    37    43    1
    44    20    21   ar
    45    21    22   ar
@<TRIPOS>MOLECULE
UDP-glaA
 43 45 0 0 0
SMALL
GASTEIGER

@<TRIPOS>ATOM
      1 P          22.4309   71.6808   -3.4928 P.3     1  UNL1        0.2189
      2 O          23.5112   72.5429   -4.3337 O.3     1  UNL1       -0.4371
      3 O          22.9110   70.3330   -3.0399 O.2     1  UNL1       -0.5170
      4 O          21.1161   71.6787   -4.4346 O.3     1  UNL1       -0.3112
      5 C          20.0582   70.7895   -4.1190 C.3     1  UNL1        0.1811
      6 O          19.0301   72.6299   -5.2723 O.3     1  UNL1       -0.3308
      7 O          16.5566   70.9382   -5.3788 O.3     1  UNL1       -0.3794
      8 O          17.5853   70.6476   -7.8874 O.3     1  UNL1       -0.3779
      9 C          17.9250   70.5449   -5.4823 C.3     1  UNL1        0.1713
     10 C          18.4826   70.9348   -6.8349 C.3     1  UNL1        0.1895
     11 C          18.7380   71.4206   -4.5379 C.3     1  UNL1        0.1764
     12 C          18.7205   72.4251   -6.6607 C.3     1  UNL1        0.2383
     13 H          16.2546   70.7041   -4.4847 H       1  UNL1        0.2105
     14 H          17.4007   69.6929   -7.8623 H       1  UNL1        0.2106
     15 O          20.5610   70.7588   -8.0066 O.2     1  UNL1       -0.2464
     16 O          22.8774   74.3692   -9.6913 O.2     1  UNL1       -0.2670
     17 N          19.8137   72.9027   -7.4584 N.ar    1  UNL1       -0.2551
     18 N          21.7135   72.5577   -8.8442 N.ar    1  UNL1       -0.2743
     19 C          20.6811   71.9823   -8.0918 C.ar    1  UNL1        0.3323
     20 C          20.0179   74.2701   -7.6069 C.ar    1  UNL1        0.0869
     21 C          21.0067   74.8031   -8.3280 C.ar    1  UNL1        0.0795
     22 C          21.9572   73.9109   -9.0209 C.ar    1  UNL1        0.2626
     23 H          22.3498   71.9150   -9.3080 H       1  UNL1        0.1734
     24 O          22.0181   72.6861   -2.2953 O.3     1  UNL1       -0.2703
     25 P          22.5942   74.1396   -1.8852 P.3     1  UNL1        0.2208
     26 O          21.5912   75.1619   -2.6369 O.3     1  UNL1       -0.4371
     27 O          24.0458   74.3418   -2.2131 O.2     1  UNL1       -0.5170
     28 O          22.2367   74.2942   -0.3192 O.3     1  UNL1       -0.2858
     29 O          21.3669   72.2086    0.3832 O.3     1  UNL1       -0.3226
     30 O          21.2783   74.4191    3.9025 O.3     1  UNL1       -0.3794
     31 O          20.5131   75.6396    1.3666 O.3     1  UNL1       -0.3775
     32 O          20.8663   71.7857    3.1776 O.3     1  UNL1       -0.3792
     33 C          21.7434   73.9695    2.6329 C.3     1  UNL1        0.1718
     34 C          20.6912   74.2393    1.5520 C.3     1  UNL1        0.1968
     35 C          22.0363   72.4689    2.7158 C.3     1  UNL1        0.1723
     36 C          21.1078   73.6067    0.2184 C.3     1  UNL1        0.2706
     37 C          22.3996   71.9395    1.3302 C.3     1  UNL1        0.1830
     38 H          21.9734   74.2263    4.5546 H       1  UNL1        0.2105
     39 H          19.8473   75.7608    0.6689 H       1  UNL1        0.2106
     40 H          20.2159   71.7641    2.4554 H       1  UNL1        0.2106
     41 O          21.5488   69.8528    0.6781 O.co2   1  UNL1       -0.5466
     42 O          23.4953   69.8554    1.8646 O.co2   1  UNL1       -0.5466
     43 C          22.5677   70.4534    1.3389 C.2     1  UNL1        0.0799
@<TRIPOS>UNITY_ATOM_ATTR
41 1
charge -1
@<TRIPOS>BOND
     1     1     4    1
     2     1    24    1
     3     1     2    1
     4     1     3    2
     5    25    28    1
     6    25    24    1
     7    25    26    1
     8    25    27    2
     9     6    11    1
    10     6    12    1
    11    29    36    1
    12    29    37    1
    13     7     9    1
    14     7    13    1
    15     8    10    1
    16     8    14    1
    17     4     5    1
    18    28    36    1
    19    30    33    1
    20    30    38    1
    21    31    34    1
    22    31    39    1
    23    32    35    1
    24    32    40    1
    25    41    43   ar
    26    15    19    2
    27    42    43   ar
    28    16    22    2
    29    17    12    1
    30    17    19   ar
    31    17    20   ar
    32    18    19   ar
    33    18    22   ar
    34    18    23    1
    35     9    10    1
    36     9    11    1
    37    10    12    1
    38    11     5    1
    39    33    34    1
    40    33    35    1
    41    34    36    1
    42    35    37    1
    43    37    43    1
    44    20    21   ar
    45    21    22   ar
@<TRIPOS>MOLECULE
UDP-glaA
 43 45 0 0 0
SMALL
GASTEIGER

@<TRIPOS>ATOM
      1 P          22.4915   72.9553   -4.5152 P.3     1  UNL1        0.2189
      2 O          22.7529   73.6616   -5.9470 O.3     1  UNL1       -0.4371
      3 O          23.7012   72.3242   -3.8904 O.2     1  UNL1       -0.5170
      4 O          21.2448   71.9630   -4.7919 O.3     1  UNL1       -0.3112
      5 C          20.6913   71.2495   -3.6993 C.3     1  UNL1        0.1811
      6 O          18.7524   72.1264   -4.8156 O.3     1  UNL1       -0.3308
      7 O          17.1605   70.9887   -2.5435 O.3     1  UNL1       -0.3794
      8 O          16.7890   69.1413   -4.5146 O.3     1  UNL1       -0.3779
      9 C          18.3278   70.4673   -3.1786 C.3     1  UNL1        0.1713
     10 C          17.9778   69.9041   -4.5398 C.3     1  UNL1        0.1895
     11 C          19.2288   71.6405   -3.5412 C.3     1  UNL1        0.1764
     12 C          17.8455   71.1640   -5.3784 C.3     1  UNL1        0.2383
     13 H          17.4394   71.3725   -1.6947 H       1  UNL1        0.2105
     14 H          16.9178   68.4198   -3.8750 H       1  UNL1        0.2106
     15 O          16.0091   70.3956   -7.3815 O.2     1  UNL1       -0.2464
     16 O          19.2838   70.3525  -10.6239 O.2     1  UNL1       -0.2670
     17 N          18.1907   70.9456   -6.7541 N.ar    1  UNL1       -0.2551
     18 N          17.6411   70.3741   -8.9946 N.ar    1  UNL1       -0.2743
     19 C          17.1932   70.5608   -7.6802 C.ar    1  UNL1        0.3323
     20 C          19.5057   71.1127   -7.1737 C.ar    1  UNL1        0.0869
     21 C          19.9168   70.9314   -8.4307 C.ar    1  UNL1        0.0795
     22 C          18.9380   70.5279   -9.4596 C.ar    1  UNL1        0.2626
     23 H          16.9413   70.0966   -9.6776 H       1  UNL1        0.1734
     24 O          21.8242   74.1419   -3.6423 O.3     1  UNL1       -0.2703
     25 P          22.1657   74.6885   -2.1600 P.3     1  UNL1        0.2208
     26 O          20.9398   75.6953   -1.8442 O.3     1  UNL1       -0.4371
     27 O          23.5271   75.3096   -2.0309 O.2     1  UNL1       -0.5170
     28 O          21.9154   73.4234   -1.1900 O.3     1  UNL1       -0.2858
     29 O          22.8849   73.5611    0.9643 O.3     1  UNL1       -0.3226
     30 O          21.7668   69.5624    0.7663 O.3     1  UNL1       -0.3794
     31 O          22.9462   70.8874   -1.5487 O.3     1  UNL1       -0.3775
     32 O          22.7339   71.2807    2.7008 O.3     1  UNL1       -0.3792
     33 C          21.7037   70.9675    0.5385 C.3     1  UNL1        0.1718
     34 C          22.9387   71.4393   -0.2364 C.3     1  UNL1        0.1968
     35 C          21.6267   71.6852    1.8888 C.3     1  UNL1        0.1723
     36 C          22.9652   72.9695   -0.3367 C.3     1  UNL1        0.2706
     37 C          21.7017   73.1951    1.6725 C.3     1  UNL1        0.1830
     38 H          20.9685   69.3091    1.2604 H       1  UNL1        0.2105
     39 H          23.7386   71.2206   -2.0026 H       1  UNL1        0.2106
     40 H          23.5389   71.7057    2.3593 H       1  UNL1        0.2106
     41 O          20.7013   74.7676    3.0973 O.co2   1  UNL1       -0.5466
     42 O          22.6377   73.8014    3.8140 O.co2   1  UNL1       -0.5466
     43 C          21.7604   73.9319    2.9728 C.2     1  UNL1        0.0799
@<TRIPOS>UNITY_ATOM_ATTR
41 1
charge -1
@<TRIPOS>BOND
     1     1     4    1
     2     1    24    1
     3     1     2    1
     4     1     3    2
     5    25    28    1
     6    25    24    1
     7    25    26    1
     8    25    27    2
     9     6    11    1
    10     6    12    1
    11    29    36    1
    12    29    37    1
    13     7     9    1
    14     7    13    1
    15     8    10    1
    16     8    14    1
    17     4     5    1
    18    28    36    1
    19    30    33    1
    20    30    38    1
    21    31    34    1
    22    31    39    1
    23    32    35    1
    24    32    40    1
    25    41    43   ar
    26    15    19    2
    27    42    43   ar
    28    16    22    2
    29    17    12    1
    30    17    19   ar
    31    17    20   ar
    32    18    19   ar
    33    18    22   ar
    34    18    23    1
    35     9    10    1
    36     9    11    1
    37    10    12    1
    38    11     5    1
    39    33    34    1
    40    33    35    1
    41    34    36    1
    42    35    37    1
    43    37    43    1
    44    20    21   ar
    45    21    22   ar
@<TRIPOS>MOLECULE
UDP-glaA
 43 45 0 0 0
SMALL
GASTEIGER

@<TRIPOS>ATOM
      1 P          19.9584   70.0862   -2.7112 P.3     1  UNL1        0.2189
      2 O          21.3752   69.9337   -3.4771 O.3     1  UNL1       -0.4371
      3 O          19.2111   68.8020   -2.5008 O.2     1  UNL1       -0.5170
      4 O          19.1785   71.2228   -3.5571 O.3     1  UNL1       -0.3112
      5 C          19.8862   72.3915   -3.9345 C.3     1  UNL1        0.1811
      6 O          18.9931   73.7703   -5.6882 O.3     1  UNL1       -0.3308
      7 O          16.6694   74.2668   -3.8592 O.3     1  UNL1       -0.3794
      8 O          15.6858   72.3900   -5.5756 O.3     1  UNL1       -0.3779
      9 C          17.4395   73.0784   -4.0389 C.3     1  UNL1        0.1713
     10 C          17.0803   72.4131   -5.3507 C.3     1  UNL1        0.1895
     11 C          18.8872   73.4881   -4.2753 C.3     1  UNL1        0.1764
     12 C          17.8197   73.2788   -6.3567 C.3     1  UNL1        0.2383
     13 H          16.9608   74.6781   -3.0277 H       1  UNL1        0.2105
     14 H          15.2776   71.9121   -4.8333 H       1  UNL1        0.2106
     15 O          18.0155   74.3829   -8.9486 O.2     1  UNL1       -0.2464
     16 O          19.3625   70.3639  -10.7573 O.2     1  UNL1       -0.2670
     17 N          18.2196   72.5442   -7.5228 N.ar    1  UNL1       -0.2551
     18 N          18.6856   72.3807   -9.8477 N.ar    1  UNL1       -0.2743
     19 C          18.2848   73.1925   -8.7783 C.ar    1  UNL1        0.3323
     20 C          18.5421   71.1959   -7.4158 C.ar    1  UNL1        0.0869
     21 C          18.9230   70.4357   -8.4448 C.ar    1  UNL1        0.0795
     22 C          19.0160   71.0356   -9.7906 C.ar    1  UNL1        0.2626
     23 H          18.7390   72.8255  -10.7600 H       1  UNL1        0.1734
     24 O          20.3636   70.8604   -1.3504 O.3     1  UNL1       -0.2703
     25 P          21.6174   70.6607   -0.3501 P.3     1  UNL1        0.2208
     26 O          22.8146   71.4557   -1.0923 O.3     1  UNL1       -0.4371
     27 O          21.9294   69.2263   -0.0323 O.2     1  UNL1       -0.5170
     28 O          21.2619   71.5667    0.9371 O.3     1  UNL1       -0.2858
     29 O          21.5700   73.8942    1.2322 O.3     1  UNL1       -0.3226
     30 O          21.9652   72.4641    5.1152 O.3     1  UNL1       -0.3794
     31 O          23.1493   71.0183    2.8761 O.3     1  UNL1       -0.3775
     32 O          21.7862   74.9370    3.8976 O.3     1  UNL1       -0.3792
     33 C          21.4847   72.5434    3.7761 C.3     1  UNL1        0.1718
     34 C          22.6344   72.3424    2.7831 C.3     1  UNL1        0.1968
     35 C          20.8410   73.9160    3.5614 C.3     1  UNL1        0.1723
     36 C          22.1617   72.5958    1.3462 C.3     1  UNL1        0.2706
     37 C          20.4475   74.0745    2.0944 C.3     1  UNL1        0.1830
     38 H          21.2060   72.5992    5.7077 H       1  UNL1        0.2105
     39 H          23.8659   70.9357    2.2246 H       1  UNL1        0.2106
     40 H          22.4556   74.9820    3.1940 H       1  UNL1        0.2106
     41 O          20.9402   76.2664    1.4188 O.co2   1  UNL1       -0.5466
     42 O          18.7651   75.7969    1.9144 O.co2   1  UNL1       -0.5466
     43 C          19.9328   75.4499    1.8114 C.2     1  UNL1        0.0799
@<TRIPOS>UNITY_ATOM_ATTR
41 1
charge -1
@<TRIPOS>BOND
     1     1     4    1
     2     1    24    1
     3     1     2    1
     4     1     3    2
     5    25    28    1
     6    25    24    1
     7    25    26    1
     8    25    27    2
     9     6    11    1
    10     6    12    1
    11    29    36    1
    12    29    37    1
    13     7     9    1
    14     7    13    1
    15     8    10    1
    16     8    14    1
    17     4     5    1
    18    28    36    1
    19    30    33    1
    20    30    38    1
    21    31    34    1
    22    31    39    1
    23    32    35    1
    24    32    40    1
    25    41    43   ar
    26    15    19    2
    27    42    43   ar
    28    16    22    2
    29    17    12    1
    30    17    19   ar
    31    17    20   ar
    32    18    19   ar
    33    18    22   ar
    34    18    23    1
    35     9    10    1
    36     9    11    1
    37    10    12    1
    38    11     5    1
    39    33    34    1
    40    33    35    1
    41    34    36    1
    42    35    37    1
    43    37    43    1
    44    20    21   ar
    45    21    22   ar
@<TRIPOS>MOLECULE
UDP-glaA
 43 45 0 0 0
SMALL
GASTEIGER

@<TRIPOS>ATOM
      1 P          21.3682   70.8986   -1.4908 P.3     1  UNL1        0.2189
      2 O          21.0483   69.7573   -0.3897 O.3     1  UNL1       -0.4371
      3 O          22.5781   70.6378   -2.3396 O.2     1  UNL1       -0.5170
      4 O          21.3928   72.2703   -0.6345 O.3     1  UNL1       -0.3112
      5 C          22.5269   72.5468    0.1696 C.3     1  UNL1        0.1811
      6 O          23.3829   72.4599    2.4132 O.3     1  UNL1       -0.3308
      7 O          20.5281   72.1991    3.2927 O.3     1  UNL1       -0.3794
      8 O          21.0606   74.8303    3.7712 O.3     1  UNL1       -0.3779
      9 C          21.0757   72.9609    2.2169 C.3     1  UNL1        0.1713
     10 C          21.7922   74.1835    2.7505 C.3     1  UNL1        0.1895
     11 C          22.2203   72.1605    1.6095 C.3     1  UNL1        0.1764
     12 C          23.0972   73.5902    3.2536 C.3     1  UNL1        0.2383
     13 H          20.1143   71.4084    2.9067 H       1  UNL1        0.2105
     14 H          20.1981   75.0820    3.3986 H       1  UNL1        0.2106
     15 O          24.8668   74.1584    5.3798 O.2     1  UNL1       -0.2464
     16 O          27.2469   77.1744    2.8349 O.2     1  UNL1       -0.2670
     17 N          24.1882   74.5190    3.1742 N.ar    1  UNL1       -0.2551
     18 N          26.0505   75.6603    4.1113 N.ar    1  UNL1       -0.2743
     19 C          25.0175   74.7327    4.3000 C.ar    1  UNL1        0.3323
     20 C          24.4277   75.2074    1.9900 C.ar    1  UNL1        0.0869
     21 C          25.4171   76.0883    1.8259 C.ar    1  UNL1        0.0795
     22 C          26.3281   76.3697    2.9531 C.ar    1  UNL1        0.2626
     23 H          26.6590   75.8303    4.9075 H       1  UNL1        0.1734
     24 O          19.9799   71.0084   -2.3127 O.3     1  UNL1       -0.2703
     25 P          19.1542   69.9010   -3.1521 P.3     1  UNL1        0.2208
     26 O          17.6148   70.2166   -2.7686 O.3     1  UNL1       -0.4371
     27 O          19.5807   68.4851   -2.8897 O.2     1  UNL1       -0.5170
     28 O          19.2952   70.3654   -4.6910 O.3     1  UNL1       -0.2858
     29 O          19.8460   72.4748   -5.6112 O.3     1  UNL1       -0.3226
     30 O          17.2183   70.9469   -8.4467 O.3     1  UNL1       -0.3794
     31 O          16.6976   70.5893   -5.5994 O.3     1  UNL1       -0.3775
     32 O          18.8946   73.1324   -8.2382 O.3     1  UNL1       -0.3792
     33 C          18.2344   70.9473   -7.4478 C.3     1  UNL1        0.1718
     34 C          17.6798   71.4779   -6.1215 C.3     1  UNL1        0.1968
     35 C          19.3936   71.8288   -7.9210 C.3     1  UNL1        0.1723
     36 C          18.8031   71.6439   -5.0905 C.3     1  UNL1        0.2706
     37 C          20.4291   71.9569   -6.8059 C.3     1  UNL1        0.1830
     38 H          17.6138   70.6068   -9.2674 H       1  UNL1        0.2105
     39 H          16.3835   70.9608   -4.7579 H       1  UNL1        0.2106
     40 H          18.6927   73.5963   -7.4080 H       1  UNL1        0.2106
     41 O          21.0220   73.9400   -7.9104 O.co2   1  UNL1       -0.5466
     42 O          22.6924   72.7961   -6.8625 O.co2   1  UNL1       -0.5466
     43 C          21.5169   72.9141   -7.1768 C.2     1  UNL1        0.0799
@<TRIPOS>UNITY_ATOM_ATTR
41 1
charge -1
@<TRIPOS>BOND
     1     1     4    1
     2     1    24    1
     3     1     2    1
     4     1     3    2
     5    25    28    1
     6    25    24    1
     7    25    26    1
     8    25    27    2
     9     6    11    1
    10     6    12    1
    11    29    36    1
    12    29    37    1
    13     7     9    1
    14     7    13    1
    15     8    10    1
    16     8    14    1
    17     4     5    1
    18    28    36    1
    19    30    33    1
    20    30    38    1
    21    31    34    1
    22    31    39    1
    23    32    35    1
    24    32    40    1
    25    41    43   ar
    26    15    19    2
    27    42    43   ar
    28    16    22    2
    29    17    12    1
    30    17    19   ar
    31    17    20   ar
    32    18    19   ar
    33    18    22   ar
    34    18    23    1
    35     9    10    1
    36     9    11    1
    37    10    12    1
    38    11     5    1
    39    33    34    1
    40    33    35    1
    41    34    36    1
    42    35    37    1
    43    37    43    1
    44    20    21   ar
    45    21    22   ar
@<TRIPOS>MOLECULE
UDP-glaA
 43 45 0 0 0
SMALL
GASTEIGER

@<TRIPOS>ATOM
      1 P          22.9324   72.2014   -3.3442 P.3     1  UNL1        0.2189
      2 O          23.4941   70.8248   -2.7064 O.3     1  UNL1       -0.4371
      3 O          23.8791   72.9001   -4.2757 O.2     1  UNL1       -0.5170
      4 O          22.4499   73.0576   -2.0598 O.3     1  UNL1       -0.3112
      5 C          22.5346   72.4606   -0.7770 C.3     1  UNL1        0.1811
      6 O          21.5150   72.6211    1.3930 O.3     1  UNL1       -0.3308
      7 O          19.2866   74.0941    0.0308 O.3     1  UNL1       -0.3794
      8 O          20.7316   76.1122    1.1599 O.3     1  UNL1       -0.3779
      9 C          20.6878   74.1250   -0.2400 C.3     1  UNL1        0.1713
     10 C          21.4114   74.9196    0.8266 C.3     1  UNL1        0.1895
     11 C          21.2394   72.7222   -0.0216 C.3     1  UNL1        0.1764
     12 C          21.4572   73.9317    1.9798 C.3     1  UNL1        0.2383
     13 H          18.8711   73.5433   -0.6545 H       1  UNL1        0.2105
     14 H          20.6486   76.6390    0.3464 H       1  UNL1        0.2106
     15 O          21.6470   73.0406    4.6529 O.2     1  UNL1       -0.2464
     16 O          25.9189   74.7110    5.0988 O.2     1  UNL1       -0.2670
     17 N          22.6072   74.1196    2.8174 N.ar    1  UNL1       -0.2551
     18 N          23.7739   73.8734    4.8733 N.ar    1  UNL1       -0.2743
     19 C          22.6005   73.6344    4.1460 C.ar    1  UNL1        0.3323
     20 C          23.7261   74.7789    2.3207 C.ar    1  UNL1        0.0869
     21 C          24.8376   74.9985    3.0266 C.ar    1  UNL1        0.0795
     22 C          24.9119   74.5245    4.4228 C.ar    1  UNL1        0.2626
     23 H          23.7914   73.5339    5.8312 H       1  UNL1        0.1734
     24 O          21.5366   71.7441   -4.0208 O.3     1  UNL1       -0.2703
     25 P          20.4193   70.6829   -3.5329 P.3     1  UNL1        0.2208
     26 O          19.5185   71.5413   -2.4995 O.3     1  UNL1       -0.4371
     27 O          20.9834   69.4150   -2.9585 O.2     1  UNL1       -0.5170
     28 O          19.4704   70.4672   -4.8201 O.3     1  UNL1       -0.2858
     29 O          18.8965   72.2164   -6.3069 O.3     1  UNL1       -0.3226
     30 O          15.8323   69.4830   -6.9538 O.3     1  UNL1       -0.3794
     31 O          16.8079   70.0038   -4.2552 O.3     1  UNL1       -0.3775
     32 O          16.6997   71.8348   -8.1143 O.3     1  UNL1       -0.3792
     33 C          17.1440   69.9567   -6.6617 C.3     1  UNL1        0.1718
     34 C          17.1339   70.8053   -5.3857 C.3     1  UNL1        0.1968
     35 C          17.6431   70.7931   -7.8431 C.3     1  UNL1        0.1723
     36 C          18.5022   71.4596   -5.1577 C.3     1  UNL1        0.2706
     37 C          18.9874   71.4268   -7.4917 C.3     1  UNL1        0.1830
     38 H          15.8859   68.9544   -7.7683 H       1  UNL1        0.2105
     39 H          16.8231   70.5803   -3.4727 H       1  UNL1        0.2106
     40 H          16.7768   72.5101   -7.4192 H       1  UNL1        0.2106
     41 O          20.4649   71.8023   -9.2749 O.co2   1  UNL1       -0.5466
     42 O          18.9843   73.4653   -8.7858 O.co2   1  UNL1       -0.5466
     43 C          19.4516   72.3570   -8.5670 C.2     1  UNL1        0.0799
@<TRIPOS>UNITY_ATOM_ATTR
41 1
charge -1
@<TRIPOS>BOND
     1     1     4    1
     2     1    24    1
     3     1     2    1
     4     1     3    2
     5    25    28    1
     6    25    24    1
     7    25    26    1
     8    25    27    2
     9     6    11    1
    10     6    12    1
    11    29    36    1
    12    29    37    1
    13     7     9    1
    14     7    13    1
    15     8    10    1
    16     8    14    1
    17     4     5    1
    18    28    36    1
    19    30    33    1
    20    30    38    1
    21    31    34    1
    22    31    39    1
    23    32    35    1
    24    32    40    1
    25    41    43   ar
    26    15    19    2
    27    42    43   ar
    28    16    22    2
    29    17    12    1
    30    17    19   ar
    31    17    20   ar
    32    18    19   ar
    33    18    22   ar
    34    18    23    1
    35     9    10    1
    36     9    11    1
    37    10    12    1
    38    11     5    1
    39    33    34    1
    40    33    35    1
    41    34    36    1
    42    35    37    1
    43    37    43    1
    44    20    21   ar
    45    21    22   ar
@<TRIPOS>MOLECULE
UDP-glaA
 43 45 0 0 0
SMALL
GASTEIGER

@<TRIPOS>ATOM
      1 P          22.1459   73.2545   -5.2185 P.3     1  UNL1        0.2189
      2 O          22.3884   74.7573   -5.7665 O.3     1  UNL1       -0.4371
      3 O          23.3604   72.5872   -4.6425 O.2     1  UNL1       -0.5170
      4 O          21.4496   72.4932   -6.4639 O.3     1  UNL1       -0.3112
      5 C          20.8647   73.2727   -7.4931 C.3     1  UNL1        0.1811
      6 O          20.0109   71.0575   -7.8645 O.3     1  UNL1       -0.3308
      7 O          18.4842   72.2331  -10.1620 O.3     1  UNL1       -0.3794
      8 O          16.5839   72.0518   -8.2147 O.3     1  UNL1       -0.3779
      9 C          18.7922   72.8095   -8.8929 C.3     1  UNL1        0.1713
     10 C          17.9308   72.1910   -7.8122 C.3     1  UNL1        0.1895
     11 C          20.1869   72.3465   -8.4927 C.3     1  UNL1        0.1764
     12 C          18.6151   70.8530   -7.5900 C.3     1  UNL1        0.2383
     13 H          19.0857   72.6305  -10.8145 H       1  UNL1        0.2105
     14 H          16.2533   72.9379   -8.4422 H       1  UNL1        0.2106
     15 O          16.2464   69.7252   -6.5447 O.2     1  UNL1       -0.2464
     16 O          18.1670   69.0705   -2.4069 O.2     1  UNL1       -0.2670
     17 N          18.4684   70.3791   -6.2435 N.ar    1  UNL1       -0.2551
     18 N          17.2042   69.4004   -4.4848 N.ar    1  UNL1       -0.2743
     19 C          17.2360   69.8306   -5.8179 C.ar    1  UNL1        0.3323
     20 C          19.5386   70.4604   -5.3595 C.ar    1  UNL1        0.0869
     21 C          19.4926   70.0454   -4.0916 C.ar    1  UNL1        0.0795
     22 C          18.2422   69.4609   -3.5679 C.ar    1  UNL1        0.2626
     23 H          16.3280   69.0031   -4.1568 H       1  UNL1        0.1734
     24 O          20.9227   73.4415   -4.1774 O.3     1  UNL1       -0.2703
     25 P          20.8923   74.0282   -2.6716 P.3     1  UNL1        0.2208
     26 O          19.3334   74.3970   -2.4484 O.3     1  UNL1       -0.4371
     27 O          21.8394   75.1699   -2.4361 O.2     1  UNL1       -0.5170
     28 O          21.1476   72.7448   -1.7274 O.3     1  UNL1       -0.2858
     29 O          22.2485   73.2023    0.3167 O.3     1  UNL1       -0.3226
     30 O          22.3602   69.0493    0.1779 O.3     1  UNL1       -0.3794
     31 O          22.8454   70.6257   -2.2274 O.3     1  UNL1       -0.3775
     32 O          22.9646   71.0108    2.0264 O.3     1  UNL1       -0.3792
     33 C          21.8576   70.3675   -0.0219 C.3     1  UNL1        0.1718
     34 C          22.8089   71.1728   -0.9135 C.3     1  UNL1        0.1968
     35 C          21.7096   71.0527    1.3394 C.3     1  UNL1        0.1723
     36 C          22.3671   72.6393   -0.9940 C.3     1  UNL1        0.2706
     37 C          21.3080   72.5123    1.1383 C.3     1  UNL1        0.1830
     38 H          21.7291   68.5780    0.7482 H       1  UNL1        0.2105
     39 H          23.4510   71.1722   -2.7560 H       1  UNL1        0.2106
     40 H          23.5664   71.6506    1.6097 H       1  UNL1        0.2106
     41 O          21.4752   74.5803    2.2333 O.co2   1  UNL1       -0.5466
     42 O          21.0974   72.7454    3.5322 O.co2   1  UNL1       -0.5466
     43 C          21.2779   73.2553    2.4359 C.2     1  UNL1        0.0799
@<TRIPOS>UNITY_ATOM_ATTR
41 1
charge -1
@<TRIPOS>BOND
     1     1     4    1
     2     1    24    1
     3     1     2    1
     4     1     3    2
     5    25    28    1
     6    25    24    1
     7    25    26    1
     8    25    27    2
     9     6    11    1
    10     6    12    1
    11    29    36    1
    12    29    37    1
    13     7     9    1
    14     7    13    1
    15     8    10    1
    16     8    14    1
    17     4     5    1
    18    28    36    1
    19    30    33    1
    20    30    38    1
    21    31    34    1
    22    31    39    1
    23    32    35    1
    24    32    40    1
    25    41    43   ar
    26    15    19    2
    27    42    43   ar
    28    16    22    2
    29    17    12    1
    30    17    19   ar
    31    17    20   ar
    32    18    19   ar
    33    18    22   ar
    34    18    23    1
    35     9    10    1
    36     9    11    1
    37    10    12    1
    38    11     5    1
    39    33    34    1
    40    33    35    1
    41    34    36    1
    42    35    37    1
    43    37    43    1
    44    20    21   ar
    45    21    22   ar
@<TRIPOS>MOLECULE
UDP-glaA
 43 45 0 0 0
SMALL
GASTEIGER

@<TRIPOS>ATOM
      1 P          23.1083   72.5944   -3.4667 P.3     1  UNL1        0.2189
      2 O          23.3325   71.0302   -3.1198 O.3     1  UNL1       -0.4371
      3 O          24.3613   73.3597   -3.7772 O.2     1  UNL1       -0.5170
      4 O          22.2364   73.1485   -2.2225 O.3     1  UNL1       -0.3112
      5 C          22.2494   72.4183   -1.0076 C.3     1  UNL1        0.1811
      6 O          21.2233   72.5641    1.1604 O.3     1  UNL1       -0.3308
      7 O          19.0181   74.0807   -0.1918 O.3     1  UNL1       -0.3794
      8 O          20.4829   76.0671    0.9678 O.3     1  UNL1       -0.3779
      9 C          20.4207   74.0980   -0.4569 C.3     1  UNL1        0.1713
     10 C          21.1496   74.8706    0.6222 C.3     1  UNL1        0.1895
     11 C          20.9545   72.6861   -0.2538 C.3     1  UNL1        0.1764
     12 C          21.1790   73.8679    1.7632 C.3     1  UNL1        0.2383
     13 H          18.5987   73.5435   -0.8854 H       1  UNL1        0.2105
     14 H          20.4095   76.6048    0.1606 H       1  UNL1        0.2106
     15 O          21.3421   72.9549    4.4307 O.2     1  UNL1       -0.2464
     16 O          25.6379   74.5539    4.9081 O.2     1  UNL1       -0.2670
     17 N          22.3279   74.0316    2.6074 N.ar    1  UNL1       -0.2551
     18 N          23.4809   73.7522    4.6668 N.ar    1  UNL1       -0.2743
     19 C          22.3072   73.5371    3.9325 C.ar    1  UNL1        0.3323
     20 C          23.4595   74.6765    2.1205 C.ar    1  UNL1        0.0869
     21 C          24.5710   74.8733    2.8331 C.ar    1  UNL1        0.0795
     22 C          24.6312   74.3883    4.2262 C.ar    1  UNL1        0.2626
     23 H          23.4885   73.4057    5.6223 H       1  UNL1        0.1734
     24 O          22.0316   72.5474   -4.6723 O.3     1  UNL1       -0.2703
     25 P          21.8810   73.4632   -5.9957 P.3     1  UNL1        0.2208
     26 O          22.9534   72.8158   -7.0189 O.3     1  UNL1       -0.4371
     27 O          22.0664   74.9335   -5.7517 O.2     1  UNL1       -0.5170
     28 O          20.4416   73.0651   -6.6069 O.3     1  UNL1       -0.2858
     29 O          19.0861   71.1311   -6.4596 O.3     1  UNL1       -0.3226
     30 O          18.5130   72.2978  -10.4080 O.3     1  UNL1       -0.3794
     31 O          21.1620   72.4266   -9.1946 O.3     1  UNL1       -0.3775
     32 O          17.4150   70.4365   -8.6875 O.3     1  UNL1       -0.3792
     33 C          18.7388   72.4315   -9.0075 C.3     1  UNL1        0.1718
     34 C          20.0532   71.7509   -8.6107 C.3     1  UNL1        0.1968
     35 C          17.5694   71.7919   -8.2540 C.3     1  UNL1        0.1723
     36 C          20.2203   71.7394   -7.0861 C.3     1  UNL1        0.2706
     37 C          17.8600   71.7982   -6.7548 C.3     1  UNL1        0.1830
     38 H          17.6715   72.7398  -10.6130 H       1  UNL1        0.2105
     39 H          21.9694   71.9672   -8.9085 H       1  UNL1        0.2106
     40 H          18.1360   69.9066   -8.3075 H       1  UNL1        0.2106
     41 O          16.0708   71.9280   -5.2429 O.co2   1  UNL1       -0.5466
     42 O          16.6175   69.8593   -6.0292 O.co2   1  UNL1       -0.5466
     43 C          16.8033   71.0669   -5.9895 C.2     1  UNL1        0.0799
@<TRIPOS>UNITY_ATOM_ATTR
41 1
charge -1
@<TRIPOS>BOND
     1     1     4    1
     2     1    24    1
     3     1     2    1
     4     1     3    2
     5    25    28    1
     6    25    24    1
     7    25    26    1
     8    25    27    2
     9     6    11    1
    10     6    12    1
    11    29    36    1
    12    29    37    1
    13     7     9    1
    14     7    13    1
    15     8    10    1
    16     8    14    1
    17     4     5    1
    18    28    36    1
    19    30    33    1
    20    30    38    1
    21    31    34    1
    22    31    39    1
    23    32    35    1
    24    32    40    1
    25    41    43   ar
    26    15    19    2
    27    42    43   ar
    28    16    22    2
    29    17    12    1
    30    17    19   ar
    31    17    20   ar
    32    18    19   ar
    33    18    22   ar
    34    18    23    1
    35     9    10    1
    36     9    11    1
    37    10    12    1
    38    11     5    1
    39    33    34    1
    40    33    35    1
    41    34    36    1
    42    35    37    1
    43    37    43    1
    44    20    21   ar
    45    21    22   ar
@<TRIPOS>MOLECULE
UDP-glaA
 43 45 0 0 0
SMALL
GASTEIGER

@<TRIPOS>ATOM
      1 P          22.5100   75.2826   -8.2610 P.3     1  UNL1        0.2189
      2 O          21.4405   76.3323   -7.6514 O.3     1  UNL1       -0.4371
      3 O          22.7419   75.4016   -9.7389 O.2     1  UNL1       -0.5170
      4 O          21.9808   73.8437   -7.7461 O.3     1  UNL1       -0.3112
      5 C          20.5950   73.6812   -7.4968 C.3     1  UNL1        0.1811
      6 O          19.9328   71.4088   -7.9116 O.3     1  UNL1       -0.3308
      7 O          18.3647   72.4859  -10.2295 O.3     1  UNL1       -0.3794
      8 O          16.4443   72.1258   -8.3273 O.3     1  UNL1       -0.3779
      9 C          18.5975   73.0691   -8.9476 C.3     1  UNL1        0.1713
     10 C          17.7665   72.3688   -7.8932 C.3     1  UNL1        0.1895
     11 C          20.0164   72.7158   -8.5215 C.3     1  UNL1        0.1764
     12 C          18.5528   71.0881   -7.6707 C.3     1  UNL1        0.2383
     13 H          18.9456   72.9392  -10.8640 H       1  UNL1        0.2105
     14 H          16.0476   72.9849   -8.5523 H       1  UNL1        0.2106
     15 O          16.2807   69.7170   -6.7046 O.2     1  UNL1       -0.2464
     16 O          18.1399   69.2108   -2.5182 O.2     1  UNL1       -0.2670
     17 N          18.4164   70.5865   -6.3331 N.ar    1  UNL1       -0.2551
     18 N          17.2078   69.4663   -4.6204 N.ar    1  UNL1       -0.2743
     19 C          17.2338   69.9126   -5.9483 C.ar    1  UNL1        0.3323
     20 C          19.4478   70.7645   -5.4176 C.ar    1  UNL1        0.0869
     21 C          19.4080   70.3326   -4.1552 C.ar    1  UNL1        0.0795
     22 C          18.2082   69.6199   -3.6732 C.ar    1  UNL1        0.2626
     23 H          16.3671   68.9796   -4.3215 H       1  UNL1        0.1734
     24 O          23.8230   75.5335   -7.3508 O.3     1  UNL1       -0.2703
     25 P          24.9973   76.6382   -7.4656 P.3     1  UNL1        0.2208
     26 O          25.0920   77.2363   -5.9658 O.3     1  UNL1       -0.4371
     27 O          24.7692   77.6712   -8.5318 O.2     1  UNL1       -0.5170
     28 O          26.3508   75.7788   -7.6487 O.3     1  UNL1       -0.2858
     29 O          28.3202   76.4292   -6.5095 O.3     1  UNL1       -0.3226
     30 O          29.8118   73.9048   -9.4560 O.3     1  UNL1       -0.3794
     31 O          27.6810   75.7998  -10.0680 O.3     1  UNL1       -0.3775
     32 O          30.8078   75.1868   -7.2212 O.3     1  UNL1       -0.3792
     33 C          28.9005   74.4148   -8.4866 C.3     1  UNL1        0.1718
     34 C          28.4486   75.8281   -8.8693 C.3     1  UNL1        0.1968
     35 C          29.5922   74.4378   -7.1207 C.3     1  UNL1        0.1723
     36 C          27.6055   76.4508   -7.7496 C.3     1  UNL1        0.2706
     37 C          28.6826   75.1126   -6.0962 C.3     1  UNL1        0.1830
     38 H          30.0724   73.0119   -9.1725 H       1  UNL1        0.2105
     39 H          27.4102   76.7124  -10.2646 H       1  UNL1        0.2106
     40 H          30.5847   76.1310   -7.2837 H       1  UNL1        0.2106
     41 O          29.3964   74.0976   -4.1052 O.co2   1  UNL1       -0.5466
     42 O          29.8454   76.3184   -4.3573 O.co2   1  UNL1       -0.5466
     43 C          29.3691   75.2737   -4.7772 C.2     1  UNL1        0.0799
@<TRIPOS>UNITY_ATOM_ATTR
41 1
charge -1
@<TRIPOS>BOND
     1     1     4    1
     2     1    24    1
     3     1     2    1
     4     1     3    2
     5    25    28    1
     6    25    24    1
     7    25    26    1
     8    25    27    2
     9     6    11    1
    10     6    12    1
    11    29    36    1
    12    29    37    1
    13     7     9    1
    14     7    13    1
    15     8    10    1
    16     8    14    1
    17     4     5    1
    18    28    36    1
    19    30    33    1
    20    30    38    1
    21    31    34    1
    22    31    39    1
    23    32    35    1
    24    32    40    1
    25    41    43   ar
    26    15    19    2
    27    42    43   ar
    28    16    22    2
    29    17    12    1
    30    17    19   ar
    31    17    20   ar
    32    18    19   ar
    33    18    22   ar
    34    18    23    1
    35     9    10    1
    36     9    11    1
    37    10    12    1
    38    11     5    1
    39    33    34    1
    40    33    35    1
    41    34    36    1
    42    35    37    1
    43    37    43    1
    44    20    21   ar
    45    21    22   ar
@<TRIPOS>MOLECULE
UDP-glaA
 43 45 0 0 0
SMALL
GASTEIGER

@<TRIPOS>ATOM
      1 P          21.5237   73.4291   -5.7651 P.3     1  UNL1        0.2189
      2 O          21.2647   74.9412   -6.2787 O.3     1  UNL1       -0.4371
      3 O          22.4661   72.6254   -6.6125 O.2     1  UNL1       -0.5170
      4 O          20.0370   72.8162   -5.5924 O.3     1  UNL1       -0.3112
      5 C          19.9045   71.4557   -5.2173 C.3     1  UNL1        0.1811
      6 O          17.6778   72.3376   -5.0208 O.3     1  UNL1       -0.3308
      7 O          16.8667   69.5868   -4.1450 O.3     1  UNL1       -0.3794
      8 O          16.0732   69.6395   -6.7533 O.3     1  UNL1       -0.3779
      9 C          17.8384   69.9758   -5.1157 C.3     1  UNL1        0.1713
     10 C          17.1556   70.4650   -6.3755 C.3     1  UNL1        0.1895
     11 C          18.5241   71.2397   -4.6136 C.3     1  UNL1        0.1764
     12 C          16.7123   71.8611   -5.9727 C.3     1  UNL1        0.2383
     13 H          17.3485   69.3188   -3.3440 H       1  UNL1        0.2105
     14 H          16.4227   68.7417   -6.8871 H       1  UNL1        0.2106
     15 O          14.8019   73.9174   -6.2850 O.2     1  UNL1       -0.2464
     16 O          16.6414   75.2685  -10.2886 O.2     1  UNL1       -0.2670
     17 N          16.6689   72.7652   -7.0863 N.ar    1  UNL1       -0.2551
     18 N          15.7189   74.5885   -8.2787 N.ar    1  UNL1       -0.2743
     19 C          15.6677   73.7624   -7.1481 C.ar    1  UNL1        0.3323
     20 C          17.6116   72.6585   -8.1029 C.ar    1  UNL1        0.0869
     21 C          17.6473   73.4541   -9.1741 C.ar    1  UNL1        0.0795
     22 C          16.6365   74.5208   -9.3156 C.ar    1  UNL1        0.2626
     23 H          15.0083   75.3123   -8.3446 H       1  UNL1        0.1734
     24 O          22.0078   73.6433   -4.2371 O.3     1  UNL1       -0.2703
     25 P          23.1659   72.9114   -3.3793 P.3     1  UNL1        0.2208
     26 O          24.5046   73.7148   -3.8018 O.3     1  UNL1       -0.4371
     27 O          23.2420   71.4261   -3.5887 O.2     1  UNL1       -0.5170
     28 O          22.8873   73.3560   -1.8533 O.3     1  UNL1       -0.2858
     29 O          21.6942   71.6711   -0.6970 O.3     1  UNL1       -0.3226
     30 O          21.8669   74.7126    2.1311 O.3     1  UNL1       -0.3794
     31 O          21.3527   75.3249   -0.6737 O.3     1  UNL1       -0.3775
     32 O          21.0738   72.0673    2.0773 O.3     1  UNL1       -0.3792
     33 C          22.2856   73.8861    1.0486 C.3     1  UNL1        0.1718
     34 C          21.3109   74.0109   -0.1272 C.3     1  UNL1        0.1968
     35 C          22.3442   72.4333    1.5286 C.3     1  UNL1        0.1723
     36 C          21.6551   72.9998   -1.2279 C.3     1  UNL1        0.2706
     37 C          22.6527   71.5149    0.3482 C.3     1  UNL1        0.1830
     38 H          22.5100   74.6002    2.8518 H       1  UNL1        0.2105
     39 H          20.7286   75.3530   -1.4183 H       1  UNL1        0.2106
     40 H          20.4437   71.9504    1.3462 H       1  UNL1        0.2106
     41 O          23.4046   69.8345    1.8025 O.co2   1  UNL1       -0.5466
     42 O          21.9036   69.2244    0.1988 O.co2   1  UNL1       -0.5466
     43 C          22.5918   70.0742    0.7453 C.2     1  UNL1        0.0799
@<TRIPOS>UNITY_ATOM_ATTR
41 1
charge -1
@<TRIPOS>BOND
     1     1     4    1
     2     1    24    1
     3     1     2    1
     4     1     3    2
     5    25    28    1
     6    25    24    1
     7    25    26    1
     8    25    27    2
     9     6    11    1
    10     6    12    1
    11    29    36    1
    12    29    37    1
    13     7     9    1
    14     7    13    1
    15     8    10    1
    16     8    14    1
    17     4     5    1
    18    28    36    1
    19    30    33    1
    20    30    38    1
    21    31    34    1
    22    31    39    1
    23    32    35    1
    24    32    40    1
    25    41    43   ar
    26    15    19    2
    27    42    43   ar
    28    16    22    2
    29    17    12    1
    30    17    19   ar
    31    17    20   ar
    32    18    19   ar
    33    18    22   ar
    34    18    23    1
    35     9    10    1
    36     9    11    1
    37    10    12    1
    38    11     5    1
    39    33    34    1
    40    33    35    1
    41    34    36    1
    42    35    37    1
    43    37    43    1
    44    20    21   ar
    45    21    22   ar
@<TRIPOS>MOLECULE
UDP-glaA
 43 45 0 0 0
SMALL
GASTEIGER

@<TRIPOS>ATOM
      1 P          21.8180   73.0026   -4.5792 P.3     1  UNL1        0.2189
      2 O          21.3662   74.1047   -3.4845 O.3     1  UNL1       -0.4371
      3 O          23.2904   72.9630   -4.8671 O.2     1  UNL1       -0.5170
      4 O          20.8613   73.2993   -5.8489 O.3     1  UNL1       -0.3112
      5 C          20.0742   72.2401   -6.3663 C.3     1  UNL1        0.1811
      6 O          17.8749   73.1806   -6.1370 O.3     1  UNL1       -0.3308
      7 O          17.1665   70.6826   -4.6371 O.3     1  UNL1       -0.3794
      8 O          16.1158   70.2113   -7.1088 O.3     1  UNL1       -0.3779
      9 C          18.0346   70.8474   -5.7583 C.3     1  UNL1        0.1713
     10 C          17.2272   71.0785   -7.0181 C.3     1  UNL1        0.1895
     11 C          18.7620   72.1759   -5.5977 C.3     1  UNL1        0.1764
     12 C          16.8209   72.5349   -6.8701 C.3     1  UNL1        0.2383
     13 H          17.7271   70.5769   -3.8496 H       1  UNL1        0.2105
     14 H          16.4537   69.2994   -7.0885 H       1  UNL1        0.2106
     15 O          18.7203   72.4528   -8.9583 O.2     1  UNL1       -0.2464
     16 O          16.1074   75.0938  -11.6852 O.2     1  UNL1       -0.2670
     17 N          16.6626   73.1913   -8.1363 N.ar    1  UNL1       -0.2551
     18 N          17.4182   73.7684  -10.3146 N.ar    1  UNL1       -0.2743
     19 C          17.6765   73.0882   -9.1172 C.ar    1  UNL1        0.3323
     20 C          15.5122   73.9278   -8.3963 C.ar    1  UNL1        0.0869
     21 C          15.2805   74.5702   -9.5432 C.ar    1  UNL1        0.0795
     22 C          16.2897   74.5138  -10.6192 C.ar    1  UNL1        0.2626
     23 H          18.1337   73.7088  -11.0341 H       1  UNL1        0.1734
     24 O          21.2116   71.6279   -3.9810 O.3     1  UNL1       -0.2703
     25 P          21.7738   70.6281   -2.8422 P.3     1  UNL1        0.2208
     26 O          23.3690   70.6208   -3.1095 O.3     1  UNL1       -0.4371
     27 O          21.1379   69.2675   -2.8486 O.2     1  UNL1       -0.5170
     28 O          21.5950   71.4411   -1.4598 O.3     1  UNL1       -0.2858
     29 O          23.2047   72.9105   -0.5384 O.3     1  UNL1       -0.3226
     30 O          21.0588   71.7486    2.8267 O.3     1  UNL1       -0.3794
     31 O          21.7401   69.8064    0.7605 O.3     1  UNL1       -0.3775
     32 O          23.0173   73.6060    2.2400 O.3     1  UNL1       -0.3792
     33 C          21.3030   72.0909    1.4653 C.3     1  UNL1        0.1718
     34 C          22.3021   71.1121    0.8391 C.3     1  UNL1        0.1968
     35 C          21.8582   73.5165    1.4049 C.3     1  UNL1        0.1723
     36 C          22.7020   71.5706   -0.5688 C.3     1  UNL1        0.2706
     37 C          22.2595   73.8506   -0.0302 C.3     1  UNL1        0.1830
     38 H          20.4246   72.3943    3.1823 H       1  UNL1        0.2105
     39 H          22.4031   69.2259    0.3503 H       1  UNL1        0.2106
     40 H          23.7524   73.1481    1.7983 H       1  UNL1        0.2106
     41 O          22.5064   75.9958    0.8869 O.co2   1  UNL1       -0.5466
     42 O          23.7434   75.5100   -0.9654 O.co2   1  UNL1       -0.5466
     43 C          22.9271   75.1863   -0.1148 C.2     1  UNL1        0.0799
@<TRIPOS>UNITY_ATOM_ATTR
41 1
charge -1
@<TRIPOS>BOND
     1     1     4    1
     2     1    24    1
     3     1     2    1
     4     1     3    2
     5    25    28    1
     6    25    24    1
     7    25    26    1
     8    25    27    2
     9     6    11    1
    10     6    12    1
    11    29    36    1
    12    29    37    1
    13     7     9    1
    14     7    13    1
    15     8    10    1
    16     8    14    1
    17     4     5    1
    18    28    36    1
    19    30    33    1
    20    30    38    1
    21    31    34    1
    22    31    39    1
    23    32    35    1
    24    32    40    1
    25    41    43   ar
    26    15    19    2
    27    42    43   ar
    28    16    22    2
    29    17    12    1
    30    17    19   ar
    31    17    20   ar
    32    18    19   ar
    33    18    22   ar
    34    18    23    1
    35     9    10    1
    36     9    11    1
    37    10    12    1
    38    11     5    1
    39    33    34    1
    40    33    35    1
    41    34    36    1
    42    35    37    1
    43    37    43    1
    44    20    21   ar
    45    21    22   ar
@<TRIPOS>MOLECULE
UDP-glaA
 43 45 0 0 0
SMALL
GASTEIGER

@<TRIPOS>ATOM
      1 P          21.6201   70.7130   -2.9027 P.3     1  UNL1        0.2189
      2 O          21.1560   69.2048   -3.2595 O.3     1  UNL1       -0.4371
      3 O          22.9335   71.1286   -3.4979 O.2     1  UNL1       -0.5170
      4 O          21.5276   70.7779   -1.2894 O.3     1  UNL1       -0.3112
      5 C          22.3969   71.6568   -0.5958 C.3     1  UNL1        0.1811
      6 O          21.2421   73.5218    0.3852 O.3     1  UNL1       -0.3308
      7 O          22.5620   75.2046   -1.7167 O.3     1  UNL1       -0.3794
      8 O          24.0941   75.6924    0.4857 O.3     1  UNL1       -0.3779
      9 C          23.0735   74.0728   -1.0130 C.3     1  UNL1        0.1713
     10 C          23.4209   74.4528    0.4109 C.3     1  UNL1        0.1895
     11 C          21.9286   73.0891   -0.8100 C.3     1  UNL1        0.1764
     12 C          22.0528   74.4906    1.0704 C.3     1  UNL1        0.2383
     13 H          22.3174   74.9049   -2.6088 H       1  UNL1        0.2105
     14 H          24.9030   75.6189   -0.0496 H       1  UNL1        0.2106
     15 O          21.0433   72.0939    2.1713 O.2     1  UNL1       -0.2464
     16 O          22.3122   73.3027    6.4336 O.2     1  UNL1       -0.2670
     17 N          22.1065   74.1528    2.4641 N.ar    1  UNL1       -0.2551
     18 N          21.6753   72.6976    4.2931 N.ar    1  UNL1       -0.2743
     19 C          21.5698   72.9240    2.9145 C.ar    1  UNL1        0.3323
     20 C          22.6862   75.0349    3.3692 C.ar    1  UNL1        0.0869
     21 C          22.7795   74.8043    4.6807 C.ar    1  UNL1        0.0795
     22 C          22.2426   73.5446    5.2325 C.ar    1  UNL1        0.2626
     23 H          21.2956   71.8207    4.6395 H       1  UNL1        0.1734
     24 O          20.3550   71.6027   -3.3750 O.3     1  UNL1       -0.2703
     25 P          19.4143   71.4966   -4.6851 P.3     1  UNL1        0.2208
     26 O          18.4344   70.2572   -4.3390 O.3     1  UNL1       -0.4371
     27 O          20.1691   71.3488   -5.9751 O.2     1  UNL1       -0.5170
     28 O          18.4652   72.7998   -4.6137 O.3     1  UNL1       -0.2858
     29 O          17.9593   73.2020   -6.8900 O.3     1  UNL1       -0.3226
     30 O          16.3073   69.4362   -6.2828 O.3     1  UNL1       -0.3794
     31 O          16.0501   71.5121   -4.2505 O.3     1  UNL1       -0.3775
     32 O          16.7770   71.0956   -8.4405 O.3     1  UNL1       -0.3792
     33 C          17.2195   70.5209   -6.1364 C.3     1  UNL1        0.1718
     34 C          16.4992   71.7536   -5.5798 C.3     1  UNL1        0.1968
     35 C          17.8292   70.8432   -7.5035 C.3     1  UNL1        0.1723
     36 C          17.4297   72.9728   -5.5801 C.3     1  UNL1        0.2706
     37 C          18.7007   72.0925   -7.3950 C.3     1  UNL1        0.1830
     38 H          16.8048   68.6805   -6.6391 H       1  UNL1        0.2105
     39 H          15.6103   72.3207   -3.9380 H       1  UNL1        0.2106
     40 H          16.3932   71.9676   -8.2465 H       1  UNL1        0.2106
     41 O          19.4953   71.4421   -9.5044 O.co2   1  UNL1       -0.5466
     42 O          19.3579   73.6799   -9.0916 O.co2   1  UNL1       -0.5466
     43 C          19.2133   72.5200   -8.7335 C.2     1  UNL1        0.0799
@<TRIPOS>UNITY_ATOM_ATTR
41 1
charge -1
@<TRIPOS>BOND
     1     1     4    1
     2     1    24    1
     3     1     2    1
     4     1     3    2
     5    25    28    1
     6    25    24    1
     7    25    26    1
     8    25    27    2
     9     6    11    1
    10     6    12    1
    11    29    36    1
    12    29    37    1
    13     7     9    1
    14     7    13    1
    15     8    10    1
    16     8    14    1
    17     4     5    1
    18    28    36    1
    19    30    33    1
    20    30    38    1
    21    31    34    1
    22    31    39    1
    23    32    35    1
    24    32    40    1
    25    41    43   ar
    26    15    19    2
    27    42    43   ar
    28    16    22    2
    29    17    12    1
    30    17    19   ar
    31    17    20   ar
    32    18    19   ar
    33    18    22   ar
    34    18    23    1
    35     9    10    1
    36     9    11    1
    37    10    12    1
    38    11     5    1
    39    33    34    1
    40    33    35    1
    41    34    36    1
    42    35    37    1
    43    37    43    1
    44    20    21   ar
    45    21    22   ar
