@<TRIPOS>MOLECULE
UD1
 46 48 0 0 0
SMALL
GASTEIGER

@<TRIPOS>ATOM
      1 P          21.0786   71.6788   -2.2514 P.3     1  UNL1        0.2189
      2 O          21.5318   73.0839   -2.3461 O.2     1  UNL1       -0.5170
      3 O          22.3122   70.6944   -2.5706 O.3     1  UNL1       -0.4371
      4 O          19.8993   71.4228   -3.3175 O.3     1  UNL1       -0.3112
      5 C          18.7679   70.9584   -2.5796 C.3     1  UNL1        0.1811
      6 C          17.0991   70.5871   -5.7426 C.3     1  UNL1        0.2383
      7 C          17.0762   69.1675   -5.1226 C.3     1  UNL1        0.1895
      8 O          15.9186   68.4447   -5.5429 O.3     1  UNL1       -0.3779
      9 C          17.0147   69.4763   -3.6040 C.3     1  UNL1        0.1713
     10 C          17.5424   70.9198   -3.4939 C.3     1  UNL1        0.1764
     11 O          17.9064   71.3464   -4.8178 O.3     1  UNL1       -0.3308
     12 O          15.6689   69.3911   -3.1303 O.3     1  UNL1       -0.3794
     13 H          15.9648   67.5739   -5.1246 H       1  UNL1        0.2106
     14 H          15.3768   68.4822   -3.2809 H       1  UNL1        0.2105
     15 N          17.7166   70.5647   -7.0690 N.ar    1  UNL1       -0.2551
     16 C          16.9414   70.4728   -8.1635 C.ar    1  UNL1        0.3323
     17 N          17.4819   70.4540   -9.3963 N.ar    1  UNL1       -0.2743
     18 C          18.8196   70.5184   -9.5527 C.ar    1  UNL1        0.2626
     19 C          19.6478   70.6094   -8.4088 C.ar    1  UNL1        0.0795
     20 C          19.0790   70.6317   -7.1843 C.ar    1  UNL1        0.0869
     21 O          15.7332   70.4140   -8.0387 O.2     1  UNL1       -0.2464
     22 O          19.3096   70.4967  -10.6666 O.2     1  UNL1       -0.2670
     23 H          16.9073   70.3921  -10.1748 H       1  UNL1        0.1734
     24 O          20.5310   71.3903   -0.7662 O.3     1  UNL1       -0.2703
     25 P          21.8201   71.1461    0.1653 P.3     1  UNL1        0.2208
     26 O          23.0068   70.9117   -0.6865 O.2     1  UNL1       -0.5170
     27 O          21.5705   69.8606    1.1020 O.3     1  UNL1       -0.4371
     28 O          22.0697   72.4406    1.0886 O.3     1  UNL1       -0.2865
     29 C          22.0250   71.9966    2.4458 C.3     1  UNL1        0.2611
     30 C          21.9397   73.2111    3.3719 C.3     1  UNL1        0.1582
     31 C          23.1601   74.1080    3.1360 C.3     1  UNL1        0.1625
     32 C          24.4278   73.2605    3.2871 C.3     1  UNL1        0.1686
     33 C          24.3266   72.0437    2.3649 C.3     1  UNL1        0.1760
     34 O          23.1699   75.1657    4.0965 O.3     1  UNL1       -0.3801
     35 O          25.5698   74.0406    2.9279 O.3     1  UNL1       -0.3794
     36 O          23.2026   71.2478    2.7385 O.3     1  UNL1       -0.3263
     37 H          23.9518   75.7040    3.9115 H       1  UNL1        0.2105
     38 H          26.3438   73.4698    3.0364 H       1  UNL1        0.2105
     39 C          19.9827   74.4698    4.0931 C.2     1  UNL1        0.2231
     40 C          18.7228   75.2422    3.7960 C.3     1  UNL1        0.0946
     41 N          20.7160   73.9620    3.0838 N.am    1  UNL1       -0.2994
     42 O          20.3361   74.3047    5.2412 O.2     1  UNL1       -0.2751
     43 H          20.4332   74.0938    2.1650 H       1  UNL1        0.1496
     44 C          25.6024   71.2075    2.4841 C.3     1  UNL1        0.1693
     45 O          25.9033   70.6139    1.2196 O.3     1  UNL1       -0.3794
     46 H          26.7116   70.0969    1.3383 H       1  UNL1        0.2105
@<TRIPOS>BOND
     1    29    30    1
     2    29    28    1
     3    29    36    1
     4    30    31    1
     5    30    41    1
     6    31    32    1
     7    31    34    1
     8    32    33    1
     9    32    35    1
    10    33    44    1
    11    33    36    1
    12    44    45    1
    13    39    40    1
    14    39    41   am
    15    39    42    2
    16    41    43    1
    17    28    25    1
    18    34    37    1
    19    35    38    1
    20    45    46    1
    21    15    16   ar
    22    15    20   ar
    23    15     6    1
    24    16    17   ar
    25    16    21    2
    26    17    18   ar
    27    17    23    1
    28    18    19   ar
    29    18    22    2
    30    19    20   ar
    31     6     7    1
    32     6    11    1
    33     7     8    1
    34     7     9    1
    35     8    13    1
    36     9    10    1
    37     9    12    1
    38    10    11    1
    39    10     5    1
    40    12    14    1
    41     5     4    1
    42     4     1    1
    43     1     2    2
    44     1     3    1
    45     1    24    1
    46    24    25    1
    47    25    26    2
    48    25    27    1
@<TRIPOS>MOLECULE
UD1
 46 48 0 0 0
SMALL
GASTEIGER

@<TRIPOS>ATOM
      1 P          20.9656   70.8723   -3.5054 P.3     1  UNL1        0.2189
      2 O          21.8321   71.5041   -4.5247 O.2     1  UNL1       -0.5170
      3 O          20.4435   69.4505   -4.0516 O.3     1  UNL1       -0.4371
      4 O          19.7042   71.8277   -3.2075 O.3     1  UNL1       -0.3112
      5 C          18.7038   71.0131   -2.5943 C.3     1  UNL1        0.1811
      6 C          17.0301   70.5791   -5.7468 C.3     1  UNL1        0.2383
      7 C          17.0385   69.1651   -5.1138 C.3     1  UNL1        0.1895
      8 O          15.8940   68.4153   -5.5227 O.3     1  UNL1       -0.3779
      9 C          16.9768   69.4865   -3.5979 C.3     1  UNL1        0.1713
     10 C          17.4756   70.9414   -3.5031 C.3     1  UNL1        0.1764
     11 O          17.8257   71.3630   -4.8323 O.3     1  UNL1       -0.3308
     12 O          15.6350   69.3786   -3.1177 O.3     1  UNL1       -0.3794
     13 H          15.9595   67.5494   -5.0966 H       1  UNL1        0.2106
     14 H          15.3607   68.4626   -3.2588 H       1  UNL1        0.2105
     15 N          17.6427   70.5570   -7.0755 N.ar    1  UNL1       -0.2551
     16 C          16.8631   70.4682   -8.1672 C.ar    1  UNL1        0.3323
     17 N          17.3990   70.4498   -9.4020 N.ar    1  UNL1       -0.2743
     18 C          18.7362   70.5114   -9.5634 C.ar    1  UNL1        0.2626
     19 C          19.5690   70.5991   -8.4224 C.ar    1  UNL1        0.0795
     20 C          19.0048   70.6211   -7.1958 C.ar    1  UNL1        0.0869
     21 O          15.6554   70.4119   -8.0380 O.2     1  UNL1       -0.2464
     22 O          19.2221   70.4900  -10.6791 O.2     1  UNL1       -0.2670
     23 H          16.8214   70.3901  -10.1785 H       1  UNL1        0.1734
     24 O          21.8041   70.6526   -2.1499 O.3     1  UNL1       -0.2703
     25 P          23.0927   71.6122   -2.2396 P.3     1  UNL1        0.2208
     26 O          22.7134   72.8881   -2.8853 O.2     1  UNL1       -0.5170
     27 O          24.2399   70.8914   -3.1095 O.3     1  UNL1       -0.4371
     28 O          23.6493   71.9053   -0.7581 O.3     1  UNL1       -0.2865
     29 C          22.6958   71.3635    0.1576 C.3     1  UNL1        0.2611
     30 C          21.9336   72.5075    0.8288 C.3     1  UNL1        0.1582
     31 C          22.9310   73.4137    1.5592 C.3     1  UNL1        0.1625
     32 C          23.7766   72.5516    2.5027 C.3     1  UNL1        0.1686
     33 C          24.4022   71.4059    1.7044 C.3     1  UNL1        0.1760
     34 O          22.2207   74.3983    2.3125 O.3     1  UNL1       -0.3801
     35 O          24.8088   73.3506    3.0838 O.3     1  UNL1       -0.3794
     36 O          23.3737   70.5899    1.1452 O.3     1  UNL1       -0.3263
     37 H          22.8850   74.9451    2.7542 H       1  UNL1        0.2105
     38 H          25.3163   72.7699    3.6685 H       1  UNL1        0.2105
     39 C          19.9793   73.7445    0.0641 C.2     1  UNL1        0.2231
     40 C          19.2443   74.5423   -0.9825 C.3     1  UNL1        0.0946
     41 N          21.2194   73.2830   -0.1875 N.am    1  UNL1       -0.2994
     42 O          19.4538   73.5172    1.1330 O.2     1  UNL1       -0.2751
     43 H          21.6400   73.4645   -1.0429 H       1  UNL1        0.1496
     44 C          25.2752   70.5574    2.6313 C.3     1  UNL1        0.1693
     45 O          26.6353   70.9833    2.5272 O.3     1  UNL1       -0.3794
     46 H          27.1500   70.4245    3.1251 H       1  UNL1        0.2105
@<TRIPOS>BOND
     1    29    30    1
     2    29    28    1
     3    29    36    1
     4    30    31    1
     5    30    41    1
     6    31    32    1
     7    31    34    1
     8    32    33    1
     9    32    35    1
    10    33    44    1
    11    33    36    1
    12    44    45    1
    13    39    40    1
    14    39    41   am
    15    39    42    2
    16    41    43    1
    17    28    25    1
    18    34    37    1
    19    35    38    1
    20    45    46    1
    21    15    16   ar
    22    15    20   ar
    23    15     6    1
    24    16    17   ar
    25    16    21    2
    26    17    18   ar
    27    17    23    1
    28    18    19   ar
    29    18    22    2
    30    19    20   ar
    31     6     7    1
    32     6    11    1
    33     7     8    1
    34     7     9    1
    35     8    13    1
    36     9    10    1
    37     9    12    1
    38    10    11    1
    39    10     5    1
    40    12    14    1
    41     5     4    1
    42     4     1    1
    43     1     2    2
    44     1     3    1
    45     1    24    1
    46    24    25    1
    47    25    26    2
    48    25    27    1
@<TRIPOS>MOLECULE
UD1
 46 48 0 0 0
SMALL
GASTEIGER

@<TRIPOS>ATOM
      1 P          21.0766   70.8445   -3.3380 P.3     1  UNL1        0.2189
      2 O          20.6563   69.4940   -3.7715 O.2     1  UNL1       -0.5170
      3 O          21.8114   70.7450   -1.9087 O.3     1  UNL1       -0.4371
      4 O          19.7821   71.7936   -3.2098 O.3     1  UNL1       -0.3112
      5 C          18.7656   71.0225   -2.5675 C.3     1  UNL1        0.1811
      6 C          17.0728   70.5959   -5.7107 C.3     1  UNL1        0.2383
      7 C          17.0876   69.1799   -5.0824 C.3     1  UNL1        0.1895
      8 O          15.9418   68.4294   -5.4865 O.3     1  UNL1       -0.3779
      9 C          17.0350   69.4962   -3.5651 C.3     1  UNL1        0.1713
     10 C          17.5319   70.9516   -3.4687 C.3     1  UNL1        0.1764
     11 O          17.8728   71.3782   -4.7987 O.3     1  UNL1       -0.3308
     12 O          15.6964   69.3844   -3.0768 O.3     1  UNL1       -0.3794
     13 H          16.0114   67.5623   -5.0637 H       1  UNL1        0.2106
     14 H          15.4228   68.4685   -3.2192 H       1  UNL1        0.2105
     15 N          17.6770   70.5792   -7.0434 N.ar    1  UNL1       -0.2551
     16 C          16.8937   70.4523   -8.1286 C.ar    1  UNL1        0.3323
     17 N          17.4217   70.4379   -9.3668 N.ar    1  UNL1       -0.2743
     18 C          18.7551   70.5419   -9.5381 C.ar    1  UNL1        0.2626
     19 C          19.5919   70.6700   -8.4040 C.ar    1  UNL1        0.0795
     20 C          19.0354   70.6871   -7.1739 C.ar    1  UNL1        0.0869
     21 O          15.6893   70.3576   -7.9903 O.2     1  UNL1       -0.2464
     22 O          19.2340   70.5241  -10.6569 O.2     1  UNL1       -0.2670
     23 H          16.8413   70.3503  -10.1385 H       1  UNL1        0.1734
     24 O          22.0912   71.4647   -4.4220 O.3     1  UNL1       -0.2703
     25 P          23.2863   72.1577   -3.5970 P.3     1  UNL1        0.2208
     26 O          24.1520   72.9163   -4.5265 O.2     1  UNL1       -0.5170
     27 O          24.1578   71.0232   -2.8584 O.3     1  UNL1       -0.4371
     28 O          22.6709   73.1598   -2.4981 O.3     1  UNL1       -0.2865
     29 C          23.7702   73.8641   -1.9177 C.3     1  UNL1        0.2611
     30 C          23.6836   73.7676   -0.3935 C.3     1  UNL1        0.1582
     31 C          22.3513   74.3660    0.0717 C.3     1  UNL1        0.1625
     32 C          22.2235   75.7818   -0.5003 C.3     1  UNL1        0.1686
     33 C          22.4172   75.7259   -2.0171 C.3     1  UNL1        0.1760
     34 O          22.3223   74.4183    1.4992 O.3     1  UNL1       -0.3801
     35 O          20.9270   76.3028   -0.2016 O.3     1  UNL1       -0.3794
     36 O          23.7216   75.2317   -2.3186 O.3     1  UNL1       -0.3263
     37 H          21.4690   74.7999    1.7476 H       1  UNL1        0.2105
     38 H          20.8893   77.1929   -0.5796 H       1  UNL1        0.2105
     39 C          24.4522   72.0164    1.1153 C.2     1  UNL1        0.2231
     40 C          24.5302   70.5703    1.5337 C.3     1  UNL1        0.0946
     41 N          23.7593   72.3630    0.0136 N.am    1  UNL1       -0.2994
     42 O          25.0139   72.8682    1.7704 O.2     1  UNL1       -0.2751
     43 H          23.3098   71.6815   -0.5110 H       1  UNL1        0.1496
     44 C          22.2593   77.1307   -2.6024 C.3     1  UNL1        0.1693
     45 O          23.4631   77.5050   -3.2753 O.3     1  UNL1       -0.3794
     46 H          23.3217   78.3939   -3.6281 H       1  UNL1        0.2105
@<TRIPOS>BOND
     1    29    30    1
     2    29    28    1
     3    29    36    1
     4    30    31    1
     5    30    41    1
     6    31    32    1
     7    31    34    1
     8    32    33    1
     9    32    35    1
    10    33    44    1
    11    33    36    1
    12    44    45    1
    13    39    40    1
    14    39    41   am
    15    39    42    2
    16    41    43    1
    17    28    25    1
    18    34    37    1
    19    35    38    1
    20    45    46    1
    21    15    16   ar
    22    15    20   ar
    23    15     6    1
    24    16    17   ar
    25    16    21    2
    26    17    18   ar
    27    17    23    1
    28    18    19   ar
    29    18    22    2
    30    19    20   ar
    31     6     7    1
    32     6    11    1
    33     7     8    1
    34     7     9    1
    35     8    13    1
    36     9    10    1
    37     9    12    1
    38    10    11    1
    39    10     5    1
    40    12    14    1
    41     5     4    1
    42     4     1    1
    43     1     2    2
    44     1     3    1
    45     1    24    1
    46    24    25    1
    47    25    26    2
    48    25    27    1
@<TRIPOS>MOLECULE
UD1
 46 48 0 0 0
SMALL
GASTEIGER

@<TRIPOS>ATOM
      1 P          20.5625   71.0759   -1.6468 P.3     1  UNL1        0.2189
      2 O          20.8161   70.6307   -0.2589 O.2     1  UNL1       -0.5170
      3 O          20.5608   72.6850   -1.7026 O.3     1  UNL1       -0.4371
      4 O          19.1315   70.5215   -2.1346 O.3     1  UNL1       -0.3112
      5 C          18.3534   71.6588   -2.5106 C.3     1  UNL1        0.1811
      6 C          16.9698   70.5625   -5.6429 C.3     1  UNL1        0.2383
      7 C          17.2801   69.2526   -4.8759 C.3     1  UNL1        0.1895
      8 O          16.3619   68.2199   -5.2357 O.3     1  UNL1       -0.3779
      9 C          17.0775   69.6837   -3.4000 C.3     1  UNL1        0.1713
     10 C          17.2178   71.2178   -3.4354 C.3     1  UNL1        0.1764
     11 O          17.5186   71.5905   -4.7911 O.3     1  UNL1       -0.3308
     12 O          15.7779   69.3042   -2.9418 O.3     1  UNL1       -0.3794
     13 H          16.6088   67.4355   -4.7265 H       1  UNL1        0.2106
     14 H          15.7318   68.3406   -2.9997 H       1  UNL1        0.2105
     15 N          17.6293   70.5681   -6.9492 N.ar    1  UNL1       -0.2551
     16 C          16.8889   70.5053   -8.0696 C.ar    1  UNL1        0.3323
     17 N          17.4684   70.5127   -9.2847 N.ar    1  UNL1       -0.2743
     18 C          18.8106   70.5744   -9.3970 C.ar    1  UNL1        0.2626
     19 C          19.6024   70.6350   -8.2255 C.ar    1  UNL1        0.0795
     20 C          18.9949   70.6314   -7.0196 C.ar    1  UNL1        0.0869
     21 O          15.6772   70.4493   -7.9847 O.2     1  UNL1       -0.2464
     22 O          19.3359   70.5764  -10.4949 O.2     1  UNL1       -0.2670
     23 H          16.9187   70.4716  -10.0824 H       1  UNL1        0.1734
     24 O          21.7162   70.5057   -2.6126 O.3     1  UNL1       -0.2703
     25 P          23.0032   71.4494   -2.4069 P.3     1  UNL1        0.2208
     26 O          24.1891   70.8051   -3.0129 O.2     1  UNL1       -0.5170
     27 O          23.2600   71.6724   -0.8332 O.3     1  UNL1       -0.4371
     28 O          22.7455   72.8721   -3.1140 O.3     1  UNL1       -0.2865
     29 C          23.8631   73.1185   -3.9692 C.3     1  UNL1        0.2611
     30 C          24.3121   74.5718   -3.8074 C.3     1  UNL1        0.1582
     31 C          23.1446   75.4996   -4.1621 C.3     1  UNL1        0.1625
     32 C          22.6292   75.1277   -5.5564 C.3     1  UNL1        0.1686
     33 C          22.3042   73.6327   -5.5853 C.3     1  UNL1        0.1760
     34 O          23.5931   76.8561   -4.1599 O.3     1  UNL1       -0.3801
     35 O          21.4497   75.8802   -5.8464 O.3     1  UNL1       -0.3794
     36 O          23.4862   72.8773   -5.3231 O.3     1  UNL1       -0.3263
     37 H          22.8289   77.4035   -4.3870 H       1  UNL1        0.2105
     38 H          21.1591   75.6152   -6.7306 H       1  UNL1        0.2105
     39 C          23.8259   75.2520   -1.5194 C.2     1  UNL1        0.2231
     40 C          24.2482   75.4941   -0.0927 C.3     1  UNL1        0.0946
     41 N          24.7217   74.8067   -2.4213 N.am    1  UNL1       -0.2994
     42 O          22.6795   75.4588   -1.8557 O.2     1  UNL1       -0.2751
     43 H          25.6393   74.6414   -2.1524 H       1  UNL1        0.1496
     44 C          21.7578   73.2574   -6.9643 C.3     1  UNL1        0.1693
     45 O          21.2971   74.4343   -7.6311 O.3     1  UNL1       -0.3794
     46 H          20.9616   74.1542   -8.4934 H       1  UNL1        0.2105
@<TRIPOS>BOND
     1    29    30    1
     2    29    28    1
     3    29    36    1
     4    30    31    1
     5    30    41    1
     6    31    32    1
     7    31    34    1
     8    32    33    1
     9    32    35    1
    10    33    44    1
    11    33    36    1
    12    44    45    1
    13    39    40    1
    14    39    41   am
    15    39    42    2
    16    41    43    1
    17    28    25    1
    18    34    37    1
    19    35    38    1
    20    45    46    1
    21    15    16   ar
    22    15    20   ar
    23    15     6    1
    24    16    17   ar
    25    16    21    2
    26    17    18   ar
    27    17    23    1
    28    18    19   ar
    29    18    22    2
    30    19    20   ar
    31     6     7    1
    32     6    11    1
    33     7     8    1
    34     7     9    1
    35     8    13    1
    36     9    10    1
    37     9    12    1
    38    10    11    1
    39    10     5    1
    40    12    14    1
    41     5     4    1
    42     4     1    1
    43     1     2    2
    44     1     3    1
    45     1    24    1
    46    24    25    1
    47    25    26    2
    48    25    27    1
@<TRIPOS>MOLECULE
UD1
 46 48 0 0 0
SMALL
GASTEIGER

@<TRIPOS>ATOM
      1 P          21.6897   71.5088   -0.1890 P.3     1  UNL1        0.2189
      2 O          20.6733   72.5531    0.0659 O.2     1  UNL1       -0.5170
      3 O          21.4099   70.2430    0.7661 O.3     1  UNL1       -0.4371
      4 O          23.1551   72.0999    0.1206 O.3     1  UNL1       -0.3112
      5 C          23.5214   71.6379    1.4217 C.3     1  UNL1        0.1811
      6 C          25.6715   73.7329    3.4004 C.3     1  UNL1        0.2383
      7 C          25.6841   74.3822    1.9938 C.3     1  UNL1        0.1895
      8 O          25.8645   75.7959    2.0849 O.3     1  UNL1       -0.3779
      9 C          24.2680   74.0380    1.4635 C.3     1  UNL1        0.1713
     10 C          23.8289   72.8358    2.3215 C.3     1  UNL1        0.1764
     11 O          24.9182   72.5173    3.2043 O.3     1  UNL1       -0.3308
     12 O          23.3817   75.1438    1.6493 O.3     1  UNL1       -0.3794
     13 H          25.8636   76.1373    1.1800 H       1  UNL1        0.2106
     14 H          23.7419   75.8797    1.1366 H       1  UNL1        0.2105
     15 N          27.0324   73.4307    3.8452 N.ar    1  UNL1       -0.2551
     16 C          27.5792   74.1413    4.8470 C.ar    1  UNL1        0.3323
     17 N          28.8275   73.8826    5.2793 N.ar    1  UNL1       -0.2743
     18 C          29.5572   72.9057    4.7037 C.ar    1  UNL1        0.2626
     19 C          28.9960   72.1540    3.6441 C.ar    1  UNL1        0.0795
     20 C          27.7398   72.4309    3.2338 C.ar    1  UNL1        0.0869
     21 O          26.9336   75.0254    5.3763 O.2     1  UNL1       -0.2464
     22 O          30.6877   72.6742    5.0906 O.2     1  UNL1       -0.2670
     23 H          29.2044   74.4019    6.0063 H       1  UNL1        0.1734
     24 O          21.6114   71.0482   -1.7287 O.3     1  UNL1       -0.2703
     25 P          20.0987   71.3039   -2.2141 P.3     1  UNL1        0.2208
     26 O          19.7248   72.7094   -1.9430 O.2     1  UNL1       -0.5170
     27 O          19.1046   70.3212   -1.4152 O.3     1  UNL1       -0.4371
     28 O          19.9840   71.0132   -3.7930 O.3     1  UNL1       -0.2865
     29 C          19.5507   72.2279   -4.4077 C.3     1  UNL1        0.2611
     30 C          18.3069   71.9500   -5.2537 C.3     1  UNL1        0.1582
     31 C          18.6474   70.8979   -6.3151 C.3     1  UNL1        0.1625
     32 C          19.8762   71.3718   -7.0985 C.3     1  UNL1        0.1686
     33 C          21.0028   71.6904   -6.1133 C.3     1  UNL1        0.1760
     34 O          17.5404   70.7392   -7.2044 O.3     1  UNL1       -0.3801
     35 O          20.2991   70.3413   -7.9933 O.3     1  UNL1       -0.3794
     36 O          20.5936   72.7384   -5.2354 O.3     1  UNL1       -0.3263
     37 H          17.7973   70.0700   -7.8536 H       1  UNL1        0.2105
     38 H          21.0734   70.6804   -8.4645 H       1  UNL1        0.2105
     39 C          17.0589   70.1240   -4.2327 C.2     1  UNL1        0.2231
     40 C          15.9516   69.6097   -3.3486 C.3     1  UNL1        0.0946
     41 N          17.2317   71.4500   -4.3945 N.am    1  UNL1       -0.2994
     42 O          17.7941   69.3439   -4.7993 O.2     1  UNL1       -0.2751
     43 H          16.6433   72.0745   -3.9413 H       1  UNL1        0.1496
     44 C          22.2457   72.1337   -6.8878 C.3     1  UNL1        0.1693
     45 O          21.8643   72.5611   -8.1970 O.3     1  UNL1       -0.3794
     46 H          22.6744   72.8309   -8.6503 H       1  UNL1        0.2105
@<TRIPOS>BOND
     1    29    30    1
     2    29    28    1
     3    29    36    1
     4    30    31    1
     5    30    41    1
     6    31    32    1
     7    31    34    1
     8    32    33    1
     9    32    35    1
    10    33    44    1
    11    33    36    1
    12    44    45    1
    13    39    40    1
    14    39    41   am
    15    39    42    2
    16    41    43    1
    17    28    25    1
    18    34    37    1
    19    35    38    1
    20    45    46    1
    21    15    16   ar
    22    15    20   ar
    23    15     6    1
    24    16    17   ar
    25    16    21    2
    26    17    18   ar
    27    17    23    1
    28    18    19   ar
    29    18    22    2
    30    19    20   ar
    31     6     7    1
    32     6    11    1
    33     7     8    1
    34     7     9    1
    35     8    13    1
    36     9    10    1
    37     9    12    1
    38    10    11    1
    39    10     5    1
    40    12    14    1
    41     5     4    1
    42     4     1    1
    43     1     2    2
    44     1     3    1
    45     1    24    1
    46    24    25    1
    47    25    26    2
    48    25    27    1
@<TRIPOS>MOLECULE
UD1
 46 48 0 0 0
SMALL
GASTEIGER

@<TRIPOS>ATOM
      1 P          20.7109   72.0016   -1.8464 P.3     1  UNL1        0.2189
      2 O          21.4978   72.9728   -2.6378 O.2     1  UNL1       -0.5170
      3 O          21.2307   70.5097   -2.1569 O.3     1  UNL1       -0.4371
      4 O          19.1553   72.1207   -2.2449 O.3     1  UNL1       -0.3112
      5 C          18.6582   70.7879   -2.3750 C.3     1  UNL1        0.1811
      6 C          17.0218   70.5451   -5.5673 C.3     1  UNL1        0.2383
      7 C          16.9972   69.1007   -5.0076 C.3     1  UNL1        0.1895
      8 O          15.8460   68.3931   -5.4694 O.3     1  UNL1       -0.3779
      9 C          16.9198   69.3453   -3.4782 C.3     1  UNL1        0.1713
     10 C          17.4419   70.7844   -3.3023 C.3     1  UNL1        0.1764
     11 O          17.8177   71.2671   -4.6035 O.3     1  UNL1       -0.3308
     12 O          15.5697   69.2368   -3.0218 O.3     1  UNL1       -0.3794
     13 H          15.8908   67.5056   -5.0875 H       1  UNL1        0.2106
     14 H          15.2819   68.3343   -3.2133 H       1  UNL1        0.2105
     15 N          17.6525   70.5801   -6.8873 N.ar    1  UNL1       -0.2551
     16 C          16.8926   70.4794   -7.9917 C.ar    1  UNL1        0.3323
     17 N          17.4452   70.5125   -9.2188 N.ar    1  UNL1       -0.2743
     18 C          18.7802   70.6388   -9.3595 C.ar    1  UNL1        0.2626
     19 C          19.5927   70.7397   -8.2051 C.ar    1  UNL1        0.0795
     20 C          19.0117   70.7091   -6.9866 C.ar    1  UNL1        0.0869
     21 O          15.6870   70.3651   -7.8811 O.2     1  UNL1       -0.2464
     22 O          19.2814   70.6640  -10.4684 O.2     1  UNL1       -0.2670
     23 H          16.8814   70.4434  -10.0046 H       1  UNL1        0.1734
     24 O          20.8887   72.3175   -0.2787 O.3     1  UNL1       -0.2703
     25 P          22.1264   71.4280    0.2372 P.3     1  UNL1        0.2208
     26 O          23.0223   71.1228   -0.8999 O.2     1  UNL1       -0.5170
     27 O          21.5742   70.0535    0.8683 O.3     1  UNL1       -0.4371
     28 O          22.9429   72.2423    1.3600 O.3     1  UNL1       -0.2865
     29 C          22.4771   73.5921    1.3140 C.3     1  UNL1        0.2611
     30 C          23.6463   74.5186    0.9756 C.3     1  UNL1        0.1582
     31 C          24.7370   74.3587    2.0406 C.3     1  UNL1        0.1625
     32 C          24.1098   74.5780    3.4214 C.3     1  UNL1        0.1686
     33 C          22.9072   73.6447    3.5764 C.3     1  UNL1        0.1760
     34 O          25.7669   75.3241    1.8200 O.3     1  UNL1       -0.3801
     35 O          25.0741   74.2899    4.4356 O.3     1  UNL1       -0.3794
     36 O          21.9300   73.9482    2.5817 O.3     1  UNL1       -0.3263
     37 H          26.4303   75.1876    2.5104 H       1  UNL1        0.2105
     38 H          24.6383   74.4397    5.2866 H       1  UNL1        0.2105
     39 C          24.0531   75.0141   -1.3746 C.2     1  UNL1        0.2231
     40 C          24.6101   74.6488   -2.7268 C.3     1  UNL1        0.0946
     41 N          24.1877   74.1645   -0.3381 N.am    1  UNL1       -0.2994
     42 O          23.4830   76.0729   -1.2196 O.2     1  UNL1       -0.2751
     43 H          24.6437   73.3170   -0.4619 H       1  UNL1        0.1496
     44 C          22.2929   73.8328    4.9651 C.3     1  UNL1        0.1693
     45 O          22.3699   72.6042    5.6908 O.3     1  UNL1       -0.3794
     46 H          21.9729   72.7657    6.5574 H       1  UNL1        0.2105
@<TRIPOS>BOND
     1    29    30    1
     2    29    28    1
     3    29    36    1
     4    30    31    1
     5    30    41    1
     6    31    32    1
     7    31    34    1
     8    32    33    1
     9    32    35    1
    10    33    44    1
    11    33    36    1
    12    44    45    1
    13    39    40    1
    14    39    41   am
    15    39    42    2
    16    41    43    1
    17    28    25    1
    18    34    37    1
    19    35    38    1
    20    45    46    1
    21    15    16   ar
    22    15    20   ar
    23    15     6    1
    24    16    17   ar
    25    16    21    2
    26    17    18   ar
    27    17    23    1
    28    18    19   ar
    29    18    22    2
    30    19    20   ar
    31     6     7    1
    32     6    11    1
    33     7     8    1
    34     7     9    1
    35     8    13    1
    36     9    10    1
    37     9    12    1
    38    10    11    1
    39    10     5    1
    40    12    14    1
    41     5     4    1
    42     4     1    1
    43     1     2    2
    44     1     3    1
    45     1    24    1
    46    24    25    1
    47    25    26    2
    48    25    27    1
@<TRIPOS>MOLECULE
UD1
 46 48 0 0 0
SMALL
GASTEIGER

@<TRIPOS>ATOM
      1 P          21.2419   71.2533   -2.3705 P.3     1  UNL1        0.2189
      2 O          22.5751   70.9444   -2.9327 O.2     1  UNL1       -0.5170
      3 O          21.1279   70.6343   -0.8885 O.3     1  UNL1       -0.4371
      4 O          20.1023   70.6100   -3.3088 O.3     1  UNL1       -0.3112
      5 C          18.9289   70.4799   -2.5047 C.3     1  UNL1        0.1811
      6 C          17.1671   70.4840   -5.6389 C.3     1  UNL1        0.2383
      7 C          17.0169   69.0352   -5.1111 C.3     1  UNL1        0.1895
      8 O          15.7851   68.4580   -5.5456 O.3     1  UNL1       -0.3779
      9 C          17.0173   69.2467   -3.5747 C.3     1  UNL1        0.1713
     10 C          17.6871   70.6216   -3.3862 C.3     1  UNL1        0.1764
     11 O          18.0643   71.0979   -4.6893 O.3     1  UNL1       -0.3308
     12 O          15.6797   69.2614   -3.0713 O.3     1  UNL1       -0.3794
     13 H          15.7536   67.5609   -5.1855 H       1  UNL1        0.2106
     14 H          15.2962   68.3973   -3.2721 H       1  UNL1        0.2105
     15 N          17.7521   70.4901   -6.9802 N.ar    1  UNL1       -0.2551
     16 C          16.9496   70.4361   -8.0574 C.ar    1  UNL1        0.3323
     17 N          17.4599   70.4442   -9.3031 N.ar    1  UNL1       -0.2743
     18 C          18.7941   70.4976   -9.4905 C.ar    1  UNL1        0.2626
     19 C          19.6508   70.5488   -8.3652 C.ar    1  UNL1        0.0795
     20 C          19.1120   70.5448   -7.1270 C.ar    1  UNL1        0.0869
     21 O          15.7442   70.3876   -7.9047 O.2     1  UNL1       -0.2464
     22 O          19.2568   70.5002  -10.6162 O.2     1  UNL1       -0.2670
     23 H          16.8660   70.4095  -10.0688 H       1  UNL1        0.1734
     24 O          21.0442   72.8486   -2.3035 O.3     1  UNL1       -0.2703
     25 P          22.0901   73.4013   -1.2127 P.3     1  UNL1        0.2208
     26 O          22.3617   74.8326   -1.4708 O.2     1  UNL1       -0.5170
     27 O          23.4640   72.5681   -1.3152 O.3     1  UNL1       -0.4371
     28 O          21.4695   73.2306    0.2625 O.3     1  UNL1       -0.2865
     29 C          21.9916   74.2964    1.0578 C.3     1  UNL1        0.2611
     30 C          22.6468   73.7162    2.3124 C.3     1  UNL1        0.1582
     31 C          21.6024   72.9158    3.0987 C.3     1  UNL1        0.1625
     32 C          20.3869   73.8135    3.3535 C.3     1  UNL1        0.1686
     33 C          19.9003   74.3839    2.0197 C.3     1  UNL1        0.1760
     34 O          22.1605   72.4947    4.3448 O.3     1  UNL1       -0.3801
     35 O          19.3433   73.0453    3.9555 O.3     1  UNL1       -0.3794
     36 O          20.9311   75.1744    1.4287 O.3     1  UNL1       -0.3263
     37 H          21.4715   71.9960    4.8052 H       1  UNL1        0.2105
     38 H          18.5991   73.6473    4.0976 H       1  UNL1        0.2105
     39 C          23.5551   71.5053    1.8421 C.2     1  UNL1        0.2231
     40 C          24.6922   70.5990    1.4447 C.3     1  UNL1        0.0946
     41 N          23.7509   72.8353    1.9259 N.am    1  UNL1       -0.2994
     42 O          22.4639   71.0372    2.0873 O.2     1  UNL1       -0.2751
     43 H          24.6241   73.2102    1.7300 H       1  UNL1        0.1496
     44 C          18.6664   75.2563    2.2593 C.3     1  UNL1        0.1693
     45 O          18.8339   76.5114    1.5969 O.3     1  UNL1       -0.3794
     46 H          18.0368   77.0294    1.7730 H       1  UNL1        0.2105
@<TRIPOS>BOND
     1    29    30    1
     2    29    28    1
     3    29    36    1
     4    30    31    1
     5    30    41    1
     6    31    32    1
     7    31    34    1
     8    32    33    1
     9    32    35    1
    10    33    44    1
    11    33    36    1
    12    44    45    1
    13    39    40    1
    14    39    41   am
    15    39    42    2
    16    41    43    1
    17    28    25    1
    18    34    37    1
    19    35    38    1
    20    45    46    1
    21    15    16   ar
    22    15    20   ar
    23    15     6    1
    24    16    17   ar
    25    16    21    2
    26    17    18   ar
    27    17    23    1
    28    18    19   ar
    29    18    22    2
    30    19    20   ar
    31     6     7    1
    32     6    11    1
    33     7     8    1
    34     7     9    1
    35     8    13    1
    36     9    10    1
    37     9    12    1
    38    10    11    1
    39    10     5    1
    40    12    14    1
    41     5     4    1
    42     4     1    1
    43     1     2    2
    44     1     3    1
    45     1    24    1
    46    24    25    1
    47    25    26    2
    48    25    27    1
@<TRIPOS>MOLECULE
UD1
 46 48 0 0 0
SMALL
GASTEIGER

@<TRIPOS>ATOM
      1 P          20.2442   71.2080   -1.3974 P.3     1  UNL1        0.2189
      2 O          20.1474   72.6666   -1.1694 O.2     1  UNL1       -0.5170
      3 O          21.3589   70.9132   -2.5213 O.3     1  UNL1       -0.4371
      4 O          18.8194   70.6477   -1.8963 O.3     1  UNL1       -0.3112
      5 C          18.1343   71.7430   -2.5057 C.3     1  UNL1        0.1811
      6 C          16.8979   70.5213   -5.6530 C.3     1  UNL1        0.2383
      7 C          17.2932   69.2446   -4.8693 C.3     1  UNL1        0.1895
      8 O          16.4638   68.1418   -5.2369 O.3     1  UNL1       -0.3779
      9 C          17.0305   69.6694   -3.4011 C.3     1  UNL1        0.1713
     10 C          17.0534   71.2095   -3.4471 C.3     1  UNL1        0.1764
     11 O          17.3502   71.5945   -4.8003 O.3     1  UNL1       -0.3308
     12 O          15.7555   69.1945   -2.9634 O.3     1  UNL1       -0.3794
     13 H          16.7605   67.3825   -4.7165 H       1  UNL1        0.2106
     14 H          15.7845   68.2297   -3.0138 H       1  UNL1        0.2105
     15 N          17.5794   70.5682   -6.9472 N.ar    1  UNL1       -0.2551
     16 C          16.8600   70.5112   -8.0815 C.ar    1  UNL1        0.3323
     17 N          17.4600   70.5563   -9.2857 N.ar    1  UNL1       -0.2743
     18 C          18.8021   70.6507   -9.3731 C.ar    1  UNL1        0.2626
     19 C          19.5720   70.7055   -8.1869 C.ar    1  UNL1        0.0795
     20 C          18.9442   70.6638   -6.9922 C.ar    1  UNL1        0.0869
     21 O          15.6486   70.4261   -8.0190 O.2     1  UNL1       -0.2464
     22 O          19.3459   70.6867  -10.4614 O.2     1  UNL1       -0.2670
     23 H          16.9251   70.5189  -10.0937 H       1  UNL1        0.1734
     24 O          20.6576   70.4765   -0.0252 O.3     1  UNL1       -0.2703
     25 P          21.4675   71.5560    0.8513 P.3     1  UNL1        0.2208
     26 O          22.5415   70.8729    1.6055 O.2     1  UNL1       -0.5170
     27 O          20.4615   72.2741    1.8830 O.3     1  UNL1       -0.4371
     28 O          22.1154   72.6621   -0.1220 O.3     1  UNL1       -0.2865
     29 C          23.5322   72.4886   -0.0614 C.3     1  UNL1        0.2611
     30 C          24.1681   73.7375    0.5519 C.3     1  UNL1        0.1582
     31 C          23.8083   74.9559   -0.3058 C.3     1  UNL1        0.1625
     32 C          24.2054   74.6679   -1.7575 C.3     1  UNL1        0.1686
     33 C          23.5641   73.3502   -2.1976 C.3     1  UNL1        0.1760
     34 O          24.5166   76.1021    0.1695 O.3     1  UNL1       -0.3801
     35 O          23.7467   75.7284   -2.5979 O.3     1  UNL1       -0.3794
     36 O          24.0413   72.2842   -1.3776 O.3     1  UNL1       -0.3263
     37 H          24.2609   76.8432   -0.3968 H       1  UNL1        0.2105
     38 H          24.0165   75.5069   -3.5005 H       1  UNL1        0.2105
     39 C          24.4357   73.6222    2.9704 C.2     1  UNL1        0.2231
     40 C          23.9126   73.8180    4.3705 C.3     1  UNL1        0.0946
     41 N          23.6605   73.9280    1.9122 N.am    1  UNL1       -0.2994
     42 O          25.5546   73.1887    2.7964 O.2     1  UNL1       -0.2751
     43 H          22.7650   74.2747    2.0512 H       1  UNL1        0.1496
     44 C          23.9282   73.0696   -3.6570 C.3     1  UNL1        0.1693
     45 O          22.9081   73.5905   -4.5115 O.3     1  UNL1       -0.3794
     46 H          23.1755   73.3929   -5.4193 H       1  UNL1        0.2105
@<TRIPOS>BOND
     1    29    30    1
     2    29    28    1
     3    29    36    1
     4    30    31    1
     5    30    41    1
     6    31    32    1
     7    31    34    1
     8    32    33    1
     9    32    35    1
    10    33    44    1
    11    33    36    1
    12    44    45    1
    13    39    40    1
    14    39    41   am
    15    39    42    2
    16    41    43    1
    17    28    25    1
    18    34    37    1
    19    35    38    1
    20    45    46    1
    21    15    16   ar
    22    15    20   ar
    23    15     6    1
    24    16    17   ar
    25    16    21    2
    26    17    18   ar
    27    17    23    1
    28    18    19   ar
    29    18    22    2
    30    19    20   ar
    31     6     7    1
    32     6    11    1
    33     7     8    1
    34     7     9    1
    35     8    13    1
    36     9    10    1
    37     9    12    1
    38    10    11    1
    39    10     5    1
    40    12    14    1
    41     5     4    1
    42     4     1    1
    43     1     2    2
    44     1     3    1
    45     1    24    1
    46    24    25    1
    47    25    26    2
    48    25    27    1
@<TRIPOS>MOLECULE
UD1
 46 48 0 0 0
SMALL
GASTEIGER

@<TRIPOS>ATOM
      1 P          23.3298   72.6444   -2.7092 P.3     1  UNL1        0.2189
      2 O          24.1475   72.1563   -3.8414 O.2     1  UNL1       -0.5170
      3 O          24.0434   73.9257   -2.0448 O.3     1  UNL1       -0.4371
      4 O          23.1890   71.4784   -1.6076 O.3     1  UNL1       -0.3112
      5 C          23.9187   71.9062   -0.4566 C.3     1  UNL1        0.1811
      6 C          22.8697   71.9743    2.9818 C.3     1  UNL1        0.2383
      7 C          21.6237   72.4383    2.1865 C.3     1  UNL1        0.1895
      8 O          20.4202   72.0563    2.8535 O.3     1  UNL1       -0.3779
      9 C          21.7845   71.6675    0.8504 C.3     1  UNL1        0.1713
     10 C          23.2831   71.3121    0.8013 C.3     1  UNL1        0.1764
     11 O          23.8971   71.8764    1.9726 O.3     1  UNL1       -0.3308
     12 O          20.9830   70.4842    0.8558 O.3     1  UNL1       -0.3794
     13 H          19.6858   72.3737    2.3099 H       1  UNL1        0.2106
     14 H          20.0643   70.7697    0.9484 H       1  UNL1        0.2105
     15 N          23.2358   72.9628    3.9968 N.ar    1  UNL1       -0.2551
     16 C          24.0852   73.9566    3.6832 C.ar    1  UNL1        0.3323
     17 N          24.4364   74.8819    4.5957 N.ar    1  UNL1       -0.2743
     18 C          23.9452   74.8203    5.8498 C.ar    1  UNL1        0.2626
     19 C          23.0547   73.7759    6.1951 C.ar    1  UNL1        0.0795
     20 C          22.7150   72.8641    5.2589 C.ar    1  UNL1        0.0869
     21 O          24.5366   74.0257    2.5563 O.2     1  UNL1       -0.2464
     22 O          24.2658   75.6537    6.6769 O.2     1  UNL1       -0.2670
     23 H          25.0466   75.5946    4.3508 H       1  UNL1        0.1734
     24 O          21.8690   73.0585   -3.2416 O.3     1  UNL1       -0.2703
     25 P          20.9848   71.7143   -3.2662 P.3     1  UNL1        0.2208
     26 O          20.1610   71.6434   -2.0393 O.2     1  UNL1       -0.5170
     27 O          21.9571   70.4328   -3.3337 O.3     1  UNL1       -0.4371
     28 O          20.0242   71.7258   -4.5575 O.3     1  UNL1       -0.2865
     29 C          20.1704   70.4553   -5.1943 C.3     1  UNL1        0.2611
     30 C          20.2987   70.6592   -6.7049 C.3     1  UNL1        0.1582
     31 C          19.0495   71.3825   -7.2208 C.3     1  UNL1        0.1625
     32 C          17.8102   70.6015   -6.7712 C.3     1  UNL1        0.1686
     33 C          17.8682   70.4046   -5.2549 C.3     1  UNL1        0.1760
     34 O          19.0881   71.4460   -8.6477 O.3     1  UNL1       -0.3801
     35 O          16.6328   71.3346   -7.1147 O.3     1  UNL1       -0.3794
     36 O          19.0289   69.6490   -4.9110 O.3     1  UNL1       -0.3263
     37 H          18.2860   71.9077   -8.9286 H       1  UNL1        0.2105
     38 H          15.8781   70.8088   -6.8137 H       1  UNL1        0.2105
     39 C          21.3842   72.8062   -7.0878 C.2     1  UNL1        0.2231
     40 C          22.6071   73.6367   -7.3830 C.3     1  UNL1        0.0946
     41 N          21.4864   71.4666   -6.9912 N.am    1  UNL1       -0.2994
     42 O          20.3079   73.3438   -6.9378 O.2     1  UNL1       -0.2751
     43 H          22.3476   71.0360   -7.1114 H       1  UNL1        0.1496
     44 C          16.6183   69.6536   -4.7912 C.3     1  UNL1        0.1693
     45 O          16.9679   68.7481   -3.7424 O.3     1  UNL1       -0.3794
     46 H          16.1544   68.2963   -3.4802 H       1  UNL1        0.2105
@<TRIPOS>BOND
     1    29    30    1
     2    29    28    1
     3    29    36    1
     4    30    31    1
     5    30    41    1
     6    31    32    1
     7    31    34    1
     8    32    33    1
     9    32    35    1
    10    33    44    1
    11    33    36    1
    12    44    45    1
    13    39    40    1
    14    39    41   am
    15    39    42    2
    16    41    43    1
    17    28    25    1
    18    34    37    1
    19    35    38    1
    20    45    46    1
    21    15    16   ar
    22    15    20   ar
    23    15     6    1
    24    16    17   ar
    25    16    21    2
    26    17    18   ar
    27    17    23    1
    28    18    19   ar
    29    18    22    2
    30    19    20   ar
    31     6     7    1
    32     6    11    1
    33     7     8    1
    34     7     9    1
    35     8    13    1
    36     9    10    1
    37     9    12    1
    38    10    11    1
    39    10     5    1
    40    12    14    1
    41     5     4    1
    42     4     1    1
    43     1     2    2
    44     1     3    1
    45     1    24    1
    46    24    25    1
    47    25    26    2
    48    25    27    1
@<TRIPOS>MOLECULE
UD1
 46 48 0 0 0
SMALL
GASTEIGER

@<TRIPOS>ATOM
      1 P          16.2736   69.6840   -2.6959 P.3     1  UNL1        0.2189
      2 O          15.9992   69.1050   -4.0293 O.2     1  UNL1       -0.5170
      3 O          16.9960   68.5820   -1.7706 O.3     1  UNL1       -0.4371
      4 O          14.8873   70.1331   -2.0108 O.3     1  UNL1       -0.3112
      5 C          14.9282   69.6784   -0.6573 C.3     1  UNL1        0.1811
      6 C          12.8541   67.4716    1.2807 C.3     1  UNL1        0.2383
      7 C          11.9182   68.6441    0.8940 C.3     1  UNL1        0.1895
      8 O          10.5679   68.1983    0.7627 O.3     1  UNL1       -0.3779
      9 C          12.4929   69.0804   -0.4788 C.3     1  UNL1        0.1713
     10 C          13.9329   68.5318   -0.4732 C.3     1  UNL1        0.1764
     11 O          14.1464   67.8985    0.7998 O.3     1  UNL1       -0.3308
     12 O          11.7351   68.5037   -1.5446 O.3     1  UNL1       -0.3794
     13 H          10.0395   68.9721    0.5225 H       1  UNL1        0.2106
     14 H          10.8324   68.8382   -1.4582 H       1  UNL1        0.2105
     15 N          12.8795   67.2842    2.7318 N.ar    1  UNL1       -0.2551
     16 C          12.6369   68.3285    3.5429 C.ar    1  UNL1        0.3323
     17 N          12.6498   68.1844    4.8813 N.ar    1  UNL1       -0.2743
     18 C          12.9173   66.9834    5.4328 C.ar    1  UNL1        0.2626
     19 C          13.1803   65.8768    4.5907 C.ar    1  UNL1        0.0795
     20 C          13.1557   66.0483    3.2515 C.ar    1  UNL1        0.0869
     21 O          12.3940   69.4180    3.0605 O.2     1  UNL1       -0.2464
     22 O          12.9339   66.8530    6.6428 O.2     1  UNL1       -0.2670
     23 H          12.4680   68.9475    5.4512 H       1  UNL1        0.1734
     24 O          17.2335   70.9656   -2.8544 O.3     1  UNL1       -0.2703
     25 P          18.7216   70.4044   -3.0993 P.3     1  UNL1        0.2208
     26 O          18.6476   69.0217   -3.6204 O.2     1  UNL1       -0.5170
     27 O          19.5337   70.4105   -1.7092 O.3     1  UNL1       -0.4371
     28 O          19.4805   71.3401   -4.1666 O.3     1  UNL1       -0.2865
     29 C          20.5937   70.5908   -4.6570 C.3     1  UNL1        0.2611
     30 C          21.8703   71.4177   -4.4937 C.3     1  UNL1        0.1582
     31 C          21.7189   72.7316   -5.2685 C.3     1  UNL1        0.1625
     32 C          21.3336   72.4058   -6.7154 C.3     1  UNL1        0.1686
     33 C          20.0955   71.5068   -6.7110 C.3     1  UNL1        0.1760
     34 O          22.9567   73.4449   -5.2481 O.3     1  UNL1       -0.3801
     35 O          21.0444   73.6164   -7.4171 O.3     1  UNL1       -0.3794
     36 O          20.3892   70.2850   -6.0346 O.3     1  UNL1       -0.3263
     37 H          22.8163   74.2625   -5.7453 H       1  UNL1        0.2105
     38 H          20.8064   73.3658   -8.3210 H       1  UNL1        0.2105
     39 C          23.2574   71.3794   -2.4916 C.2     1  UNL1        0.2231
     40 C          23.4813   71.6771   -1.0309 C.3     1  UNL1        0.0946
     41 N          22.0885   71.7071   -3.0749 N.am    1  UNL1       -0.2994
     42 O          24.1296   70.8440   -3.1418 O.2     1  UNL1       -0.2751
     43 H          21.3902   72.1354   -2.5547 H       1  UNL1        0.1496
     44 C          19.6830   71.2020   -8.1526 C.3     1  UNL1        0.1693
     45 O          18.3517   71.6706   -8.3768 O.3     1  UNL1       -0.3794
     46 H          18.1314   71.4591   -9.2940 H       1  UNL1        0.2105
@<TRIPOS>BOND
     1    29    30    1
     2    29    28    1
     3    29    36    1
     4    30    31    1
     5    30    41    1
     6    31    32    1
     7    31    34    1
     8    32    33    1
     9    32    35    1
    10    33    44    1
    11    33    36    1
    12    44    45    1
    13    39    40    1
    14    39    41   am
    15    39    42    2
    16    41    43    1
    17    28    25    1
    18    34    37    1
    19    35    38    1
    20    45    46    1
    21    15    16   ar
    22    15    20   ar
    23    15     6    1
    24    16    17   ar
    25    16    21    2
    26    17    18   ar
    27    17    23    1
    28    18    19   ar
    29    18    22    2
    30    19    20   ar
    31     6     7    1
    32     6    11    1
    33     7     8    1
    34     7     9    1
    35     8    13    1
    36     9    10    1
    37     9    12    1
    38    10    11    1
    39    10     5    1
    40    12    14    1
    41     5     4    1
    42     4     1    1
    43     1     2    2
    44     1     3    1
    45     1    24    1
    46    24    25    1
    47    25    26    2
    48    25    27    1
@<TRIPOS>MOLECULE
UD1
 46 48 0 0 0
SMALL
GASTEIGER

@<TRIPOS>ATOM
      1 P          20.4008   72.0602   -1.1409 P.3     1  UNL1        0.2189
      2 O          21.1156   73.0823   -1.9367 O.2     1  UNL1       -0.5170
      3 O          21.1485   70.6423   -1.2926 O.3     1  UNL1       -0.4371
      4 O          18.8873   71.9274   -1.6744 O.3     1  UNL1       -0.3112
      5 C          18.8196   70.7173   -2.4303 C.3     1  UNL1        0.1811
      6 C          17.0896   70.5162   -5.5758 C.3     1  UNL1        0.2383
      7 C          17.0507   69.0713   -5.0183 C.3     1  UNL1        0.1895
      8 O          15.8725   68.3889   -5.4488 O.3     1  UNL1       -0.3779
      9 C          17.0213   69.3138   -3.4868 C.3     1  UNL1        0.1713
     10 C          17.5779   70.7413   -3.3230 C.3     1  UNL1        0.1764
     11 O          17.9270   71.2192   -4.6334 O.3     1  UNL1       -0.3308
     12 O          15.6825   69.2322   -2.9929 O.3     1  UNL1       -0.3794
     13 H          15.9094   67.4997   -5.0700 H       1  UNL1        0.2106
     14 H          15.3708   68.3362   -3.1779 H       1  UNL1        0.2105
     15 N          17.6836   70.5413   -6.9129 N.ar    1  UNL1       -0.2551
     16 C          16.8891   70.4859   -7.9960 C.ar    1  UNL1        0.3323
     17 N          17.4078   70.5112   -9.2381 N.ar    1  UNL1       -0.2743
     18 C          18.7424   70.5837   -9.4158 C.ar    1  UNL1        0.2626
     19 C          19.5907   70.6365   -8.2842 C.ar    1  UNL1        0.0795
     20 C          19.0436   70.6150   -7.0498 C.ar    1  UNL1        0.0869
     21 O          15.6835   70.4204   -7.8520 O.2     1  UNL1       -0.2464
     22 O          19.2126   70.6017  -10.5382 O.2     1  UNL1       -0.2670
     23 H          16.8196   70.4752  -10.0081 H       1  UNL1        0.1734
     24 O          20.3873   72.4981    0.4073 O.3     1  UNL1       -0.2703
     25 P          21.6635   71.8028    1.0981 P.3     1  UNL1        0.2208
     26 O          22.8913   72.1917    0.3701 O.2     1  UNL1       -0.5170
     27 O          21.4956   70.2023    1.0490 O.3     1  UNL1       -0.4371
     28 O          21.7736   72.2825    2.6305 O.3     1  UNL1       -0.2865
     29 C          22.0779   73.6783    2.6070 C.3     1  UNL1        0.2611
     30 C          23.1821   73.9716    3.6242 C.3     1  UNL1        0.1582
     31 C          22.7064   73.5449    5.0175 C.3     1  UNL1        0.1625
     32 C          21.3604   74.2191    5.3036 C.3     1  UNL1        0.1686
     33 C          20.3925   73.9044    4.1610 C.3     1  UNL1        0.1760
     34 O          23.6659   73.9494    5.9958 O.3     1  UNL1       -0.3801
     35 O          20.8285   73.7217    6.5330 O.3     1  UNL1       -0.3794
     36 O          20.9078   74.4240    2.9358 O.3     1  UNL1       -0.3263
     37 H          23.3275   73.6614    6.8548 H       1  UNL1        0.2105
     38 H          19.9829   74.1707    6.6739 H       1  UNL1        0.2105
     39 C          25.6026   73.7852    3.4226 C.2     1  UNL1        0.2231
     40 C          26.8444   73.0141    3.0544 C.3     1  UNL1        0.0946
     41 N          24.3887   73.2227    3.2671 N.am    1  UNL1       -0.2994
     42 O          25.6962   74.9128    3.8585 O.2     1  UNL1       -0.2751
     43 H          24.3136   72.3204    2.9181 H       1  UNL1        0.1496
     44 C          19.0347   74.5465    4.4530 C.3     1  UNL1        0.1693
     45 O          18.2426   73.6513    5.2361 O.3     1  UNL1       -0.3794
     46 H          17.3978   74.0929    5.3971 H       1  UNL1        0.2105
@<TRIPOS>BOND
     1    29    30    1
     2    29    28    1
     3    29    36    1
     4    30    31    1
     5    30    41    1
     6    31    32    1
     7    31    34    1
     8    32    33    1
     9    32    35    1
    10    33    44    1
    11    33    36    1
    12    44    45    1
    13    39    40    1
    14    39    41   am
    15    39    42    2
    16    41    43    1
    17    28    25    1
    18    34    37    1
    19    35    38    1
    20    45    46    1
    21    15    16   ar
    22    15    20   ar
    23    15     6    1
    24    16    17   ar
    25    16    21    2
    26    17    18   ar
    27    17    23    1
    28    18    19   ar
    29    18    22    2
    30    19    20   ar
    31     6     7    1
    32     6    11    1
    33     7     8    1
    34     7     9    1
    35     8    13    1
    36     9    10    1
    37     9    12    1
    38    10    11    1
    39    10     5    1
    40    12    14    1
    41     5     4    1
    42     4     1    1
    43     1     2    2
    44     1     3    1
    45     1    24    1
    46    24    25    1
    47    25    26    2
    48    25    27    1
@<TRIPOS>MOLECULE
UD1
 46 48 0 0 0
SMALL
GASTEIGER

@<TRIPOS>ATOM
      1 P          22.3226   71.9311   -3.2128 P.3     1  UNL1        0.2189
      2 O          22.7845   71.9216   -4.6182 O.2     1  UNL1       -0.5170
      3 O          21.5593   73.3156   -2.9080 O.3     1  UNL1       -0.4371
      4 O          23.5910   71.7913   -2.2307 O.3     1  UNL1       -0.3112
      5 C          23.2433   72.4462   -1.0098 C.3     1  UNL1        0.1811
      6 C          24.8546   71.5063    2.0639 C.3     1  UNL1        0.2383
      7 C          23.5388   72.1922    2.5093 C.3     1  UNL1        0.1895
      8 O          23.0642   71.6389    3.7372 O.3     1  UNL1       -0.3779
      9 C          22.5800   71.8477    1.3400 C.3     1  UNL1        0.1713
     10 C          23.5234   71.5125    0.1687 C.3     1  UNL1        0.1764
     11 O          24.8705   71.7028    0.6339 O.3     1  UNL1       -0.3308
     12 O          21.7674   70.7206    1.6748 O.3     1  UNL1       -0.3794
     13 H          22.2473   72.1071    3.9583 H       1  UNL1        0.2106
     14 H          21.2458   70.9724    2.4485 H       1  UNL1        0.2105
     15 N          26.0122   72.1498    2.6862 N.ar    1  UNL1       -0.2551
     16 C          25.9271   73.4300    3.0876 C.ar    1  UNL1        0.3323
     17 N          26.9748   74.0460    3.6665 N.ar    1  UNL1       -0.2743
     18 C          28.1369   73.3862    3.8455 C.ar    1  UNL1        0.2626
     19 C          28.2422   72.0399    3.4222 C.ar    1  UNL1        0.0795
     20 C          27.1742   71.4447    2.8492 C.ar    1  UNL1        0.0869
     21 O          24.8856   74.0384    2.9331 O.2     1  UNL1       -0.2464
     22 O          29.0863   73.9437    4.3645 O.2     1  UNL1       -0.2670
     23 H          26.8941   74.9684    3.9543 H       1  UNL1        0.1734
     24 O          21.3176   70.6983   -2.9698 O.3     1  UNL1       -0.2703
     25 P          19.9051   71.3301   -2.5283 P.3     1  UNL1        0.2208
     26 O          20.1345   72.4127   -1.5463 O.2     1  UNL1       -0.5170
     27 O          18.9898   70.1861   -1.8607 O.3     1  UNL1       -0.4371
     28 O          19.1558   71.9283   -3.8211 O.3     1  UNL1       -0.2865
     29 C          19.4341   71.0436   -4.9078 C.3     1  UNL1        0.2611
     30 C          19.2868   71.8028   -6.2276 C.3     1  UNL1        0.1582
     31 C          17.8608   72.3554   -6.3314 C.3     1  UNL1        0.1625
     32 C          16.8723   71.2022   -6.1287 C.3     1  UNL1        0.1686
     33 C          17.2000   70.4901   -4.8146 C.3     1  UNL1        0.1760
     34 O          17.6653   72.9368   -7.6218 O.3     1  UNL1       -0.3801
     35 O          15.5408   71.7179   -6.0753 O.3     1  UNL1       -0.3794
     36 O          18.5195   69.9501   -4.8749 O.3     1  UNL1       -0.3263
     37 H          16.7580   73.2710   -7.6431 H       1  UNL1        0.2105
     38 H          14.9524   70.9605   -5.9462 H       1  UNL1        0.2105
     39 C          21.1679   72.9683   -7.2460 C.2     1  UNL1        0.2231
     40 C          22.1550   74.1069   -7.2850 C.3     1  UNL1        0.0946
     41 N          20.2456   72.9089   -6.2662 N.am    1  UNL1       -0.2994
     42 O          21.2043   72.1049   -8.0966 O.2     1  UNL1       -0.2751
     43 H          20.2164   73.5996   -5.5853 H       1  UNL1        0.1496
     44 C          16.1979   69.3566   -4.5865 C.3     1  UNL1        0.1693
     45 O          16.3582   68.8372   -3.2649 O.3     1  UNL1       -0.3794
     46 H          15.7102   68.1271   -3.1628 H       1  UNL1        0.2105
@<TRIPOS>BOND
     1    29    30    1
     2    29    28    1
     3    29    36    1
     4    30    31    1
     5    30    41    1
     6    31    32    1
     7    31    34    1
     8    32    33    1
     9    32    35    1
    10    33    44    1
    11    33    36    1
    12    44    45    1
    13    39    40    1
    14    39    41   am
    15    39    42    2
    16    41    43    1
    17    28    25    1
    18    34    37    1
    19    35    38    1
    20    45    46    1
    21    15    16   ar
    22    15    20   ar
    23    15     6    1
    24    16    17   ar
    25    16    21    2
    26    17    18   ar
    27    17    23    1
    28    18    19   ar
    29    18    22    2
    30    19    20   ar
    31     6     7    1
    32     6    11    1
    33     7     8    1
    34     7     9    1
    35     8    13    1
    36     9    10    1
    37     9    12    1
    38    10    11    1
    39    10     5    1
    40    12    14    1
    41     5     4    1
    42     4     1    1
    43     1     2    2
    44     1     3    1
    45     1    24    1
    46    24    25    1
    47    25    26    2
    48    25    27    1
@<TRIPOS>MOLECULE
UD1
 46 48 0 0 0
SMALL
GASTEIGER

@<TRIPOS>ATOM
      1 P          21.6584   72.4109   -6.2846 P.3     1  UNL1        0.2189
      2 O          20.7697   73.4329   -6.8800 O.2     1  UNL1       -0.5170
      3 O          23.1943   72.8175   -6.5457 O.3     1  UNL1       -0.4371
      4 O          21.3603   70.9809   -6.9621 O.3     1  UNL1       -0.3112
      5 C          20.6181   71.2352   -8.1558 C.3     1  UNL1        0.1811
      6 C          17.4321   70.0805   -6.9543 C.3     1  UNL1        0.2383
      7 C          17.0810   71.1466   -8.0223 C.3     1  UNL1        0.1895
      8 O          15.8427   70.8392   -8.6636 O.3     1  UNL1       -0.3779
      9 C          18.2656   71.0156   -9.0147 C.3     1  UNL1        0.1713
     10 C          19.3763   70.3427   -8.1852 C.3     1  UNL1        0.1764
     11 O          18.8693   70.1663   -6.8514 O.3     1  UNL1       -0.3308
     12 O          17.8980   70.1975  -10.1274 O.3     1  UNL1       -0.3794
     13 H          15.6826   71.5377   -9.3131 H       1  UNL1        0.2106
     14 H          17.1620   70.6414  -10.5694 H       1  UNL1        0.2105
     15 N          16.8027   70.4022   -5.6729 N.ar    1  UNL1       -0.2551
     16 C          16.4032   69.4096   -4.8591 C.ar    1  UNL1        0.3323
     17 N          15.8250   69.6760   -3.6729 N.ar    1  UNL1       -0.2743
     18 C          15.6281   70.9520   -3.2844 C.ar    1  UNL1        0.2626
     19 C          16.0385   72.0067   -4.1342 C.ar    1  UNL1        0.0795
     20 C          16.6207   71.7112   -5.3161 C.ar    1  UNL1        0.0869
     21 O          16.5740   68.2536   -5.1954 O.2     1  UNL1       -0.2464
     22 O          15.1011   71.1941   -2.2143 O.2     1  UNL1       -0.2670
     23 H          15.5473   68.9476   -3.0963 H       1  UNL1        0.1734
     24 O          21.3877   72.3212   -4.7011 O.3     1  UNL1       -0.2703
     25 P          22.5389   73.1862   -3.9829 P.3     1  UNL1        0.2208
     26 O          22.6109   74.5258   -4.6067 O.2     1  UNL1       -0.5170
     27 O          23.9556   72.4399   -4.1511 O.3     1  UNL1       -0.4371
     28 O          22.1981   73.3409   -2.4176 O.3     1  UNL1       -0.2865
     29 C          23.1150   72.5051   -1.7091 C.3     1  UNL1        0.2611
     30 C          22.3389   71.6134   -0.7382 C.3     1  UNL1        0.1582
     31 C          21.5509   72.4982    0.2342 C.3     1  UNL1        0.1625
     32 C          22.5189   73.4884    0.8903 C.3     1  UNL1        0.1686
     33 C          23.2793   74.2410   -0.2037 C.3     1  UNL1        0.1760
     34 O          20.9419   71.6829    1.2372 O.3     1  UNL1       -0.3801
     35 O          21.7838   74.4176    1.6889 O.3     1  UNL1       -0.3794
     36 O          24.0364   73.3186   -0.9863 O.3     1  UNL1       -0.3263
     37 H          20.4577   72.2786    1.8255 H       1  UNL1        0.2105
     38 H          22.4300   75.0215    2.0816 H       1  UNL1        0.2105
     39 C          20.1245   71.1300   -1.6310 C.2     1  UNL1        0.2231
     40 C          19.1711   70.2537   -2.4026 C.3     1  UNL1        0.0946
     41 N          21.4125   70.7627   -1.4882 N.am    1  UNL1       -0.2994
     42 O          19.7319   72.1658   -1.1378 O.2     1  UNL1       -0.2751
     43 H          21.7269   69.9337   -1.8826 H       1  UNL1        0.1496
     44 C          24.2258   75.2559    0.4407 C.3     1  UNL1        0.1693
     45 O          23.5285   76.4831    0.6640 O.3     1  UNL1       -0.3794
     46 H          24.1590   77.0934    1.0697 H       1  UNL1        0.2105
@<TRIPOS>BOND
     1    29    30    1
     2    29    28    1
     3    29    36    1
     4    30    31    1
     5    30    41    1
     6    31    32    1
     7    31    34    1
     8    32    33    1
     9    32    35    1
    10    33    44    1
    11    33    36    1
    12    44    45    1
    13    39    40    1
    14    39    41   am
    15    39    42    2
    16    41    43    1
    17    28    25    1
    18    34    37    1
    19    35    38    1
    20    45    46    1
    21    15    16   ar
    22    15    20   ar
    23    15     6    1
    24    16    17   ar
    25    16    21    2
    26    17    18   ar
    27    17    23    1
    28    18    19   ar
    29    18    22    2
    30    19    20   ar
    31     6     7    1
    32     6    11    1
    33     7     8    1
    34     7     9    1
    35     8    13    1
    36     9    10    1
    37     9    12    1
    38    10    11    1
    39    10     5    1
    40    12    14    1
    41     5     4    1
    42     4     1    1
    43     1     2    2
    44     1     3    1
    45     1    24    1
    46    24    25    1
    47    25    26    2
    48    25    27    1
@<TRIPOS>MOLECULE
UD1
 46 48 0 0 0
SMALL
GASTEIGER

@<TRIPOS>ATOM
      1 P          21.1036   73.6550   -0.8448 P.3     1  UNL1        0.2189
      2 O          20.1864   74.5700   -1.5591 O.2     1  UNL1       -0.5170
      3 O          20.2487   72.5120   -0.0996 O.3     1  UNL1       -0.4371
      4 O          21.9498   74.4865    0.2440 O.3     1  UNL1       -0.3112
      5 C          22.1556   73.6180    1.3593 C.3     1  UNL1        0.1811
      6 C          25.3989   72.2126    2.0170 C.3     1  UNL1        0.2383
      7 C          24.4094   71.2535    2.7251 C.3     1  UNL1        0.1895
      8 O          24.9157   69.9183    2.7424 O.3     1  UNL1       -0.3779
      9 C          23.1529   71.3572    1.8220 C.3     1  UNL1        0.1713
     10 C          23.3386   72.6916    1.0740 C.3     1  UNL1        0.1764
     11 O          24.5546   73.2886    1.5558 O.3     1  UNL1       -0.3308
     12 O          23.1054   70.2635    0.9032 O.3     1  UNL1       -0.3794
     13 H          24.2562   69.3746    3.1951 H       1  UNL1        0.2106
     14 H          23.0497   69.4566    1.4322 H       1  UNL1        0.2105
     15 N          26.4025   72.7111    2.9582 N.ar    1  UNL1       -0.2551
     16 C          27.5531   72.0360    3.1249 C.ar    1  UNL1        0.3323
     17 N          28.4956   72.4734    3.9808 N.ar    1  UNL1       -0.2743
     18 C          28.2944   73.5985    4.6961 C.ar    1  UNL1        0.2626
     19 C          27.0851   74.3157    4.5348 C.ar    1  UNL1        0.0795
     20 C          26.1590   73.8575    3.6655 C.ar    1  UNL1        0.0869
     21 O          27.7492   71.0196    2.4869 O.2     1  UNL1       -0.2464
     22 O          29.1439   73.9922    5.4738 O.2     1  UNL1       -0.2670
     23 H          29.3217   71.9764    4.0849 H       1  UNL1        0.1734
     24 O          22.1096   72.9727   -1.8989 O.3     1  UNL1       -0.2703
     25 P          21.5019   71.5250   -2.2514 P.3     1  UNL1        0.2208
     26 O          21.1063   70.8387   -1.0019 O.2     1  UNL1       -0.5170
     27 O          22.6140   70.6471   -3.0161 O.3     1  UNL1       -0.4371
     28 O          20.2128   71.6991   -3.1992 O.3     1  UNL1       -0.2865
     29 C          20.4378   70.8930   -4.3572 C.3     1  UNL1        0.2611
     30 C          19.7744   71.5519   -5.5679 C.3     1  UNL1        0.1582
     31 C          18.2733   71.7025   -5.2967 C.3     1  UNL1        0.1625
     32 C          17.7059   70.3334   -4.9071 C.3     1  UNL1        0.1686
     33 C          18.5235   69.7678   -3.7440 C.3     1  UNL1        0.1760
     34 O          17.6193   72.1779   -6.4747 O.3     1  UNL1       -0.3801
     35 O          16.3414   70.4775   -4.5084 O.3     1  UNL1       -0.3794
     36 O          19.8816   69.5968   -4.1476 O.3     1  UNL1       -0.3263
     37 H          16.6798   72.2581   -6.2596 H       1  UNL1        0.2105
     38 H          16.0245   69.5944   -4.2713 H       1  UNL1        0.2105
     39 C          21.1170   73.0964   -6.8893 C.2     1  UNL1        0.2231
     40 C          21.7272   74.4553   -7.1206 C.3     1  UNL1        0.0946
     41 N          20.3671   72.8719   -5.7932 N.am    1  UNL1       -0.2994
     42 O          21.3016   72.2047   -7.6899 O.2     1  UNL1       -0.2751
     43 H          20.2193   73.5853   -5.1523 H       1  UNL1        0.1496
     44 C          17.9445   68.4146   -3.3257 C.3     1  UNL1        0.1693
     45 O          17.0351   68.6006   -2.2393 O.3     1  UNL1       -0.3794
     46 H          16.6942   67.7262   -2.0069 H       1  UNL1        0.2105
@<TRIPOS>BOND
     1    29    30    1
     2    29    28    1
     3    29    36    1
     4    30    31    1
     5    30    41    1
     6    31    32    1
     7    31    34    1
     8    32    33    1
     9    32    35    1
    10    33    44    1
    11    33    36    1
    12    44    45    1
    13    39    40    1
    14    39    41   am
    15    39    42    2
    16    41    43    1
    17    28    25    1
    18    34    37    1
    19    35    38    1
    20    45    46    1
    21    15    16   ar
    22    15    20   ar
    23    15     6    1
    24    16    17   ar
    25    16    21    2
    26    17    18   ar
    27    17    23    1
    28    18    19   ar
    29    18    22    2
    30    19    20   ar
    31     6     7    1
    32     6    11    1
    33     7     8    1
    34     7     9    1
    35     8    13    1
    36     9    10    1
    37     9    12    1
    38    10    11    1
    39    10     5    1
    40    12    14    1
    41     5     4    1
    42     4     1    1
    43     1     2    2
    44     1     3    1
    45     1    24    1
    46    24    25    1
    47    25    26    2
    48    25    27    1
@<TRIPOS>MOLECULE
UD1
 46 48 0 0 0
SMALL
GASTEIGER

@<TRIPOS>ATOM
      1 P          16.3293   69.7998   -2.9978 P.3     1  UNL1        0.2189
      2 O          16.0064   69.0408   -4.2259 O.2     1  UNL1       -0.5170
      3 O          16.8230   68.7819   -1.8520 O.3     1  UNL1       -0.4371
      4 O          15.0165   70.5818   -2.4902 O.3     1  UNL1       -0.3112
      5 C          14.8296   70.2299   -1.1184 C.3     1  UNL1        0.1811
      6 C          12.4852   68.1489    0.6423 C.3     1  UNL1        0.2383
      7 C          12.0506   69.5966    0.9821 C.3     1  UNL1        0.1895
      8 O          10.6406   69.6701    1.1962 O.3     1  UNL1       -0.3779
      9 C          12.4564   70.3680   -0.3007 C.3     1  UNL1        0.1713
     10 C          13.5149   69.4642   -0.9619 C.3     1  UNL1        0.1764
     11 O          13.7096   68.3295   -0.1006 O.3     1  UNL1       -0.3308
     12 O          11.3273   70.5383   -1.1604 O.3     1  UNL1       -0.3794
     13 H          10.4363   70.5926    1.4029 H       1  UNL1        0.2106
     14 H          10.6784   71.0596   -0.6691 H       1  UNL1        0.2105
     15 N          12.7308   67.3803    1.8631 N.ar    1  UNL1       -0.2551
     16 C          12.5102   66.0542    1.8713 C.ar    1  UNL1        0.3323
     17 N          12.7313   65.3215    2.9788 N.ar    1  UNL1       -0.2743
     18 C          13.1717   65.9126    4.1078 C.ar    1  UNL1        0.2626
     19 C          13.4023   67.3089    4.1149 C.ar    1  UNL1        0.0795
     20 C          13.1775   68.0189    2.9885 C.ar    1  UNL1        0.0869
     21 O          12.1130   65.5067    0.8608 O.2     1  UNL1       -0.2464
     22 O          13.3673   65.2519    5.1111 O.2     1  UNL1       -0.2670
     23 H          12.5714   64.3653    2.9654 H       1  UNL1        0.1734
     24 O          17.4970   70.8607   -3.3139 O.3     1  UNL1       -0.2703
     25 P          18.8911   70.0652   -3.2002 P.3     1  UNL1        0.2208
     26 O          18.6653   68.6311   -3.4852 O.2     1  UNL1       -0.5170
     27 O          19.4835   70.2290   -1.7121 O.3     1  UNL1       -0.4371
     28 O          19.9407   70.6646   -4.2631 O.3     1  UNL1       -0.2865
     29 C          19.7974   72.0857   -4.2307 C.3     1  UNL1        0.2611
     30 C          19.5193   72.5976   -5.6452 C.3     1  UNL1        0.1582
     31 C          20.6785   72.1913   -6.5622 C.3     1  UNL1        0.1625
     32 C          21.9907   72.6786   -5.9386 C.3     1  UNL1        0.1686
     33 C          22.0837   72.1580   -4.5028 C.3     1  UNL1        0.1760
     34 O          20.5043   72.7895   -7.8479 O.3     1  UNL1       -0.3801
     35 O          23.0941   72.1845   -6.7001 O.3     1  UNL1       -0.3794
     36 O          20.9980   72.6719   -3.7323 O.3     1  UNL1       -0.3263
     37 H          21.2533   72.5079   -8.3910 H       1  UNL1        0.2105
     38 H          23.8981   72.5134   -6.2735 H       1  UNL1        0.2105
     39 C          18.3042   70.8932   -6.8914 C.2     1  UNL1        0.2231
     40 C          17.0205   70.2910   -7.4028 C.3     1  UNL1        0.0946
     41 N          18.2725   72.0119   -6.1418 N.am    1  UNL1       -0.2994
     42 O          19.3662   70.3710   -7.1553 O.2     1  UNL1       -0.2751
     43 H          17.4227   72.4301   -5.9307 H       1  UNL1        0.1496
     44 C          23.4062   72.6122   -3.8816 C.3     1  UNL1        0.1693
     45 O          24.1356   71.4710   -3.4258 O.3     1  UNL1       -0.3794
     46 H          24.9596   71.8005   -3.0422 H       1  UNL1        0.2105
@<TRIPOS>BOND
     1    29    30    1
     2    29    28    1
     3    29    36    1
     4    30    31    1
     5    30    41    1
     6    31    32    1
     7    31    34    1
     8    32    33    1
     9    32    35    1
    10    33    44    1
    11    33    36    1
    12    44    45    1
    13    39    40    1
    14    39    41   am
    15    39    42    2
    16    41    43    1
    17    28    25    1
    18    34    37    1
    19    35    38    1
    20    45    46    1
    21    15    16   ar
    22    15    20   ar
    23    15     6    1
    24    16    17   ar
    25    16    21    2
    26    17    18   ar
    27    17    23    1
    28    18    19   ar
    29    18    22    2
    30    19    20   ar
    31     6     7    1
    32     6    11    1
    33     7     8    1
    34     7     9    1
    35     8    13    1
    36     9    10    1
    37     9    12    1
    38    10    11    1
    39    10     5    1
    40    12    14    1
    41     5     4    1
    42     4     1    1
    43     1     2    2
    44     1     3    1
    45     1    24    1
    46    24    25    1
    47    25    26    2
    48    25    27    1
@<TRIPOS>MOLECULE
UD1
 46 48 0 0 0
SMALL
GASTEIGER

@<TRIPOS>ATOM
      1 P          21.6882   71.0849    0.2064 P.3     1  UNL1        0.2189
      2 O          21.7075   70.0197    1.2329 O.2     1  UNL1       -0.5170
      3 O          23.1370   71.1869   -0.4886 O.3     1  UNL1       -0.4371
      4 O          21.3270   72.4921    0.9009 O.3     1  UNL1       -0.3112
      5 C          22.4120   72.8141    1.7724 C.3     1  UNL1        0.1811
      6 C          22.5509   73.6001    5.2781 C.3     1  UNL1        0.2383
      7 C          21.5379   74.6156    4.6924 C.3     1  UNL1        0.1895
      8 O          20.5478   74.9657    5.6600 O.3     1  UNL1       -0.3779
      9 C          20.9100   73.8121    3.5239 C.3     1  UNL1        0.1713
     10 C          21.9473   72.7122    3.2260 C.3     1  UNL1        0.1764
     11 O          23.0610   72.9209    4.1111 O.3     1  UNL1       -0.3308
     12 O          19.6637   73.2382    3.9242 O.3     1  UNL1       -0.3794
     13 H          19.9516   75.5976    5.2347 H       1  UNL1        0.2106
     14 H          19.0791   73.9727    4.1539 H       1  UNL1        0.2105
     15 N          23.6293   74.2915    5.9855 N.ar    1  UNL1       -0.2551
     16 C          23.5083   74.5454    7.3001 C.ar    1  UNL1        0.3323
     17 N          24.4860   75.1762    7.9771 N.ar    1  UNL1       -0.2743
     18 C          25.6059   75.5740    7.3403 C.ar    1  UNL1        0.2626
     19 C          25.7438   75.3184    5.9552 C.ar    1  UNL1        0.0795
     20 C          24.7500   74.6792    5.3017 C.ar    1  UNL1        0.0869
     21 O          22.5042   74.1928    7.8885 O.2     1  UNL1       -0.2464
     22 O          26.4885   76.1486    7.9504 O.2     1  UNL1       -0.2670
     23 H          24.3840   75.3470    8.9261 H       1  UNL1        0.1734
     24 O          20.5808   70.7367   -0.9077 O.3     1  UNL1       -0.2703
     25 P          20.5507   71.9741   -1.9359 P.3     1  UNL1        0.2208
     26 O          21.7613   72.8031   -1.7455 O.2     1  UNL1       -0.5170
     27 O          19.2403   72.8685   -1.6622 O.3     1  UNL1       -0.4371
     28 O          20.5133   71.4181   -3.4459 O.3     1  UNL1       -0.2865
     29 C          19.7988   72.3798   -4.2241 C.3     1  UNL1        0.2611
     30 C          18.6205   71.6936   -4.9175 C.3     1  UNL1        0.1582
     31 C          19.1512   70.5640   -5.8073 C.3     1  UNL1        0.1625
     32 C          20.2157   71.1396   -6.7474 C.3     1  UNL1        0.1686
     33 C          21.2754   71.8651   -5.9156 C.3     1  UNL1        0.1760
     34 O          18.0781   70.0135   -6.5734 O.3     1  UNL1       -0.3801
     35 O          20.8275   70.0786   -7.4833 O.3     1  UNL1       -0.3794
     36 O          20.6724   72.9428   -5.2005 O.3     1  UNL1       -0.3263
     37 H          18.4559   69.3084   -7.1169 H       1  UNL1        0.2105
     38 H          21.4899   70.4842   -8.0605 H       1  UNL1        0.2105
     39 C          17.8801   69.8753   -3.4752 C.2     1  UNL1        0.2231
     40 C          16.9465   69.3052   -2.4381 C.3     1  UNL1        0.0946
     41 N          17.7141   71.1395   -3.9096 N.am    1  UNL1       -0.2994
     42 O          18.7806   69.1957   -3.9194 O.2     1  UNL1       -0.2751
     43 H          16.9934   71.6835   -3.5545 H       1  UNL1        0.1496
     44 C          22.3607   72.4160   -6.8429 C.3     1  UNL1        0.1693
     45 O          21.8476   72.5116   -8.1732 O.3     1  UNL1       -0.3794
     46 H          22.5611   72.8615   -8.7238 H       1  UNL1        0.2105
@<TRIPOS>BOND
     1    29    30    1
     2    29    28    1
     3    29    36    1
     4    30    31    1
     5    30    41    1
     6    31    32    1
     7    31    34    1
     8    32    33    1
     9    32    35    1
    10    33    44    1
    11    33    36    1
    12    44    45    1
    13    39    40    1
    14    39    41   am
    15    39    42    2
    16    41    43    1
    17    28    25    1
    18    34    37    1
    19    35    38    1
    20    45    46    1
    21    15    16   ar
    22    15    20   ar
    23    15     6    1
    24    16    17   ar
    25    16    21    2
    26    17    18   ar
    27    17    23    1
    28    18    19   ar
    29    18    22    2
    30    19    20   ar
    31     6     7    1
    32     6    11    1
    33     7     8    1
    34     7     9    1
    35     8    13    1
    36     9    10    1
    37     9    12    1
    38    10    11    1
    39    10     5    1
    40    12    14    1
    41     5     4    1
    42     4     1    1
    43     1     2    2
    44     1     3    1
    45     1    24    1
    46    24    25    1
    47    25    26    2
    48    25    27    1
@<TRIPOS>MOLECULE
UD1
 46 48 0 0 0
SMALL
GASTEIGER

@<TRIPOS>ATOM
      1 P          21.1796   73.5828   -2.7978 P.3     1  UNL1        0.2189
      2 O          21.8139   73.0447   -4.0213 O.2     1  UNL1       -0.5170
      3 O          20.9587   75.1693   -2.9610 O.3     1  UNL1       -0.4371
      4 O          22.1338   73.3023   -1.5315 O.3     1  UNL1       -0.3112
      5 C          21.3987   73.6819   -0.3671 C.3     1  UNL1        0.1811
      6 C          23.2154   71.9313    2.1945 C.3     1  UNL1        0.2383
      7 C          22.4350   73.0322    2.9556 C.3     1  UNL1        0.1895
      8 O          22.1020   72.6026    4.2761 O.3     1  UNL1       -0.3779
      9 C          21.1602   73.1877    2.0862 C.3     1  UNL1        0.1713
     10 C          21.5696   72.6151    0.7155 C.3     1  UNL1        0.1764
     11 O          22.9514   72.2283    0.8069 O.3     1  UNL1       -0.3308
     12 O          20.0788   72.4390    2.6456 O.3     1  UNL1       -0.3794
     13 H          21.6205   73.3298    4.6942 H       1  UNL1        0.2106
     14 H          19.9101   72.8056    3.5238 H       1  UNL1        0.2105
     15 N          24.6483   72.0202    2.4778 N.ar    1  UNL1       -0.2551
     16 C          25.4187   70.9241    2.3670 C.ar    1  UNL1        0.3323
     17 N          26.7403   70.9775    2.6176 N.ar    1  UNL1       -0.2743
     18 C          27.3140   72.1377    2.9953 C.ar    1  UNL1        0.2626
     19 C          26.5136   73.2980    3.1217 C.ar    1  UNL1        0.0795
     20 C          25.1915   73.2175    2.8591 C.ar    1  UNL1        0.0869
     21 O          24.9160   69.8703    2.0273 O.2     1  UNL1       -0.2464
     22 O          28.5079   72.1861    3.2267 O.2     1  UNL1       -0.2670
     23 H          27.2817   70.1781    2.5280 H       1  UNL1        0.1734
     24 O          19.7590   72.8629   -2.5688 O.3     1  UNL1       -0.2703
     25 P          20.0016   71.2838   -2.7613 P.3     1  UNL1        0.2208
     26 O          19.4675   70.5563   -1.5890 O.2     1  UNL1       -0.5170
     27 O          21.5797   70.9953   -2.8977 O.3     1  UNL1       -0.4371
     28 O          19.2488   70.7823   -4.0926 O.3     1  UNL1       -0.2865
     29 C          18.5986   71.9230   -4.6557 C.3     1  UNL1        0.2611
     30 C          17.1468   71.5674   -4.9810 C.3     1  UNL1        0.1582
     31 C          17.1269   70.3925   -5.9652 C.3     1  UNL1        0.1625
     32 C          17.9970   70.7514   -7.1745 C.3     1  UNL1        0.1686
     33 C          19.3858   71.1656   -6.6838 C.3     1  UNL1        0.1760
     34 O          15.7855   70.1479   -6.3920 O.3     1  UNL1       -0.3801
     35 O          18.1114   69.6162   -8.0347 O.3     1  UNL1       -0.3794
     36 O          19.2779   72.3160   -5.8463 O.3     1  UNL1       -0.3263
     37 H          15.8196   69.4030   -7.0078 H       1  UNL1        0.2105
     38 H          18.6663   69.8851   -8.7805 H       1  UNL1        0.2105
     39 C          16.3436   69.8911   -3.4065 C.2     1  UNL1        0.2231
     40 C          15.6235   69.5021   -2.1406 C.3     1  UNL1        0.0946
     41 N          16.4477   71.1890   -3.7511 N.am    1  UNL1       -0.2994
     42 O          16.8289   69.0354   -4.1153 O.2     1  UNL1       -0.2751
     43 H          16.0593   71.8740   -3.1842 H       1  UNL1        0.1496
     44 C          20.2729   71.4950   -7.8862 C.3     1  UNL1        0.1693
     45 O          21.6462   71.3428   -7.5214 O.3     1  UNL1       -0.3794
     46 H          22.1695   71.5595   -8.3049 H       1  UNL1        0.2105
@<TRIPOS>BOND
     1    29    30    1
     2    29    28    1
     3    29    36    1
     4    30    31    1
     5    30    41    1
     6    31    32    1
     7    31    34    1
     8    32    33    1
     9    32    35    1
    10    33    44    1
    11    33    36    1
    12    44    45    1
    13    39    40    1
    14    39    41   am
    15    39    42    2
    16    41    43    1
    17    28    25    1
    18    34    37    1
    19    35    38    1
    20    45    46    1
    21    15    16   ar
    22    15    20   ar
    23    15     6    1
    24    16    17   ar
    25    16    21    2
    26    17    18   ar
    27    17    23    1
    28    18    19   ar
    29    18    22    2
    30    19    20   ar
    31     6     7    1
    32     6    11    1
    33     7     8    1
    34     7     9    1
    35     8    13    1
    36     9    10    1
    37     9    12    1
    38    10    11    1
    39    10     5    1
    40    12    14    1
    41     5     4    1
    42     4     1    1
    43     1     2    2
    44     1     3    1
    45     1    24    1
    46    24    25    1
    47    25    26    2
    48    25    27    1
@<TRIPOS>MOLECULE
UD1
 46 48 0 0 0
SMALL
GASTEIGER

@<TRIPOS>ATOM
      1 P          21.8506   72.5732   -2.8325 P.3     1  UNL1        0.2189
      2 O          22.7102   72.1119   -3.9448 O.2     1  UNL1       -0.5170
      3 O          22.0878   74.1468   -2.5879 O.3     1  UNL1       -0.4371
      4 O          22.2244   71.7606   -1.4936 O.3     1  UNL1       -0.3112
      5 C          22.1930   72.6993   -0.4174 C.3     1  UNL1        0.1811
      6 C          24.1788   72.7374    2.5797 C.3     1  UNL1        0.2383
      7 C          23.8612   71.2395    2.3435 C.3     1  UNL1        0.1895
      8 O          24.9154   70.4101    2.8333 O.3     1  UNL1       -0.3779
      9 C          23.7719   71.1656    0.7969 C.3     1  UNL1        0.1713
     10 C          23.5034   72.6208    0.3674 C.3     1  UNL1        0.1764
     11 O          23.4044   73.4108    1.5647 O.3     1  UNL1       -0.3308
     12 O          25.0038   70.6939    0.2467 O.3     1  UNL1       -0.3794
     13 H          24.6568   69.4949    2.6569 H       1  UNL1        0.2106
     14 H          25.1447   69.8049    0.5988 H       1  UNL1        0.2105
     15 N          23.7521   73.1543    3.9159 N.ar    1  UNL1       -0.2551
     16 C          22.5722   72.7303    4.4011 C.ar    1  UNL1        0.3323
     17 N          22.1561   73.0948    5.6284 N.ar    1  UNL1       -0.2743
     18 C          22.9179   73.9041    6.3916 C.ar    1  UNL1        0.2626
     19 C          24.1596   74.3627    5.8908 C.ar    1  UNL1        0.0795
     20 C          24.5551   73.9774    4.6585 C.ar    1  UNL1        0.0869
     21 O          21.8738   71.9999    3.7248 O.2     1  UNL1       -0.2464
     22 O          22.5406   74.2382    7.4995 O.2     1  UNL1       -0.2670
     23 H          21.3043   72.7757    5.9644 H       1  UNL1        0.1734
     24 O          20.3068   72.3136   -3.2042 O.3     1  UNL1       -0.2703
     25 P          20.0994   70.7183   -3.2411 P.3     1  UNL1        0.2208
     26 O          19.4415   70.2775   -1.9915 O.2     1  UNL1       -0.5170
     27 O          21.5304   69.9934   -3.3780 O.3     1  UNL1       -0.4371
     28 O          19.1775   70.3248   -4.5004 O.3     1  UNL1       -0.2865
     29 C          18.6837   71.5473   -5.0508 C.3     1  UNL1        0.2611
     30 C          17.1941   71.3950   -5.3635 C.3     1  UNL1        0.1582
     31 C          17.0053   70.2405   -6.3540 C.3     1  UNL1        0.1625
     32 C          17.9051   70.4858   -7.5699 C.3     1  UNL1        0.1686
     33 C          19.3419   70.7037   -7.0908 C.3     1  UNL1        0.1760
     34 O          15.6392   70.1838   -6.7687 O.3     1  UNL1       -0.3801
     35 O          17.8559   69.3515   -8.4374 O.3     1  UNL1       -0.3794
     36 O          19.3994   71.8522   -6.2458 O.3     1  UNL1       -0.3263
     37 H          15.5659   69.4455   -7.3890 H       1  UNL1        0.2105
     38 H          18.4355   69.5475   -9.1872 H       1  UNL1        0.2105
     39 C          16.2664   69.8315   -3.7420 C.2     1  UNL1        0.2231
     40 C          15.5115   69.5354   -2.4713 C.3     1  UNL1        0.0946
     41 N          16.4612   71.1069   -4.1289 N.am    1  UNL1       -0.2994
     42 O          16.6980   68.9213   -4.4169 O.2     1  UNL1       -0.2751
     43 H          16.1157   71.8355   -3.5891 H       1  UNL1        0.1496
     44 C          20.2546   70.9174   -8.3001 C.3     1  UNL1        0.1693
     45 O          19.4654   71.2806   -9.4347 O.3     1  UNL1       -0.3794
     46 H          20.0772   71.4053  -10.1728 H       1  UNL1        0.2105
@<TRIPOS>BOND
     1    29    30    1
     2    29    28    1
     3    29    36    1
     4    30    31    1
     5    30    41    1
     6    31    32    1
     7    31    34    1
     8    32    33    1
     9    32    35    1
    10    33    44    1
    11    33    36    1
    12    44    45    1
    13    39    40    1
    14    39    41   am
    15    39    42    2
    16    41    43    1
    17    28    25    1
    18    34    37    1
    19    35    38    1
    20    45    46    1
    21    15    16   ar
    22    15    20   ar
    23    15     6    1
    24    16    17   ar
    25    16    21    2
    26    17    18   ar
    27    17    23    1
    28    18    19   ar
    29    18    22    2
    30    19    20   ar
    31     6     7    1
    32     6    11    1
    33     7     8    1
    34     7     9    1
    35     8    13    1
    36     9    10    1
    37     9    12    1
    38    10    11    1
    39    10     5    1
    40    12    14    1
    41     5     4    1
    42     4     1    1
    43     1     2    2
    44     1     3    1
    45     1    24    1
    46    24    25    1
    47    25    26    2
    48    25    27    1
@<TRIPOS>MOLECULE
UD1
 46 48 0 0 0
SMALL
GASTEIGER

@<TRIPOS>ATOM
      1 P          20.6400   71.6797   -1.4280 P.3     1  UNL1        0.2189
      2 O          20.2487   70.6291   -0.4626 O.2     1  UNL1       -0.5170
      3 O          20.2435   73.1247   -0.8386 O.3     1  UNL1       -0.4371
      4 O          19.8704   71.4403   -2.8220 O.3     1  UNL1       -0.3112
      5 C          18.9854   70.3371   -2.6220 C.3     1  UNL1        0.1811
      6 C          17.1979   70.4185   -5.7406 C.3     1  UNL1        0.2383
      7 C          17.0195   68.9672   -5.2287 C.3     1  UNL1        0.1895
      8 O          15.7714   68.4231   -5.6594 O.3     1  UNL1       -0.3779
      9 C          17.0375   69.1601   -3.6900 C.3     1  UNL1        0.1713
     10 C          17.7397   70.5172   -3.4911 C.3     1  UNL1        0.1764
     11 O          18.1167   71.0006   -4.7916 O.3     1  UNL1       -0.3308
     12 O          15.7049   69.1988   -3.1749 O.3     1  UNL1       -0.3794
     13 H          15.7227   67.5226   -5.3097 H       1  UNL1        0.2106
     14 H          15.3003   68.3459   -3.3827 H       1  UNL1        0.2105
     15 N          17.7717   70.4276   -7.0868 N.ar    1  UNL1       -0.2551
     16 C          16.9593   70.4687   -8.1571 C.ar    1  UNL1        0.3323
     17 N          17.4594   70.4820   -9.4069 N.ar    1  UNL1       -0.2743
     18 C          18.7924   70.4447   -9.6057 C.ar    1  UNL1        0.2626
     19 C          19.6591   70.3951   -8.4879 C.ar    1  UNL1        0.0795
     20 C          19.1308   70.3882   -7.2453 C.ar    1  UNL1        0.0869
     21 O          15.7547   70.5029   -7.9940 O.2     1  UNL1       -0.2464
     22 O          19.2456   70.4518  -10.7353 O.2     1  UNL1       -0.2670
     23 H          16.8588   70.5167  -10.1673 H       1  UNL1        0.1734
     24 O          22.2287   71.6171   -1.6747 O.3     1  UNL1       -0.2703
     25 P          22.7266   73.1329   -1.8843 P.3     1  UNL1        0.2208
     26 O          21.5606   74.0430   -1.8584 O.2     1  UNL1       -0.5170
     27 O          23.4752   73.2611   -3.3039 O.3     1  UNL1       -0.4371
     28 O          23.7454   73.5324   -0.7041 O.3     1  UNL1       -0.2865
     29 C          22.9567   73.7587    0.4655 C.3     1  UNL1        0.2611
     30 C          23.3474   75.1011    1.0861 C.3     1  UNL1        0.1582
     31 C          24.8395   75.0762    1.4363 C.3     1  UNL1        0.1625
     32 C          25.1174   73.8483    2.3100 C.3     1  UNL1        0.1686
     33 C          24.5958   72.5999    1.5954 C.3     1  UNL1        0.1760
     34 O          25.1835   76.2644    2.1511 O.3     1  UNL1       -0.3801
     35 O          26.5243   73.7242    2.5262 O.3     1  UNL1       -0.3794
     36 O          23.1860   72.7085    1.4023 O.3     1  UNL1       -0.3263
     37 H          26.1281   76.2070    2.3504 H       1  UNL1        0.2105
     38 H          26.6543   72.9404    3.0786 H       1  UNL1        0.2105
     39 C          24.0658   76.6038   -0.6915 C.2     1  UNL1        0.2231
     40 C          23.7965   77.7128   -1.6764 C.3     1  UNL1        0.0946
     41 N          23.0861   76.1780    0.1289 N.am    1  UNL1       -0.2994
     42 O          25.1651   76.0951   -0.6370 O.2     1  UNL1       -0.2751
     43 H          22.2063   76.5852    0.0856 H       1  UNL1        0.1496
     44 C          24.8976   71.3638    2.4453 C.3     1  UNL1        0.1693
     45 O          26.1806   70.8435    2.0912 O.3     1  UNL1       -0.3794
     46 H          26.3313   70.0677    2.6480 H       1  UNL1        0.2105
@<TRIPOS>BOND
     1    29    30    1
     2    29    28    1
     3    29    36    1
     4    30    31    1
     5    30    41    1
     6    31    32    1
     7    31    34    1
     8    32    33    1
     9    32    35    1
    10    33    44    1
    11    33    36    1
    12    44    45    1
    13    39    40    1
    14    39    41   am
    15    39    42    2
    16    41    43    1
    17    28    25    1
    18    34    37    1
    19    35    38    1
    20    45    46    1
    21    15    16   ar
    22    15    20   ar
    23    15     6    1
    24    16    17   ar
    25    16    21    2
    26    17    18   ar
    27    17    23    1
    28    18    19   ar
    29    18    22    2
    30    19    20   ar
    31     6     7    1
    32     6    11    1
    33     7     8    1
    34     7     9    1
    35     8    13    1
    36     9    10    1
    37     9    12    1
    38    10    11    1
    39    10     5    1
    40    12    14    1
    41     5     4    1
    42     4     1    1
    43     1     2    2
    44     1     3    1
    45     1    24    1
    46    24    25    1
    47    25    26    2
    48    25    27    1
@<TRIPOS>MOLECULE
UD1
 46 48 0 0 0
SMALL
GASTEIGER

@<TRIPOS>ATOM
      1 P          22.5037   74.5362   -6.0634 P.3     1  UNL1        0.2189
      2 O          22.9910   74.0594   -7.3764 O.2     1  UNL1       -0.5170
      3 O          22.6506   76.1377   -5.9857 O.3     1  UNL1       -0.4371
      4 O          23.3759   73.8608   -4.8904 O.3     1  UNL1       -0.3112
      5 C          23.3173   74.7446   -3.7698 C.3     1  UNL1        0.1811
      6 C          22.1482   73.1727   -0.7548 C.3     1  UNL1        0.2383
      7 C          22.2538   74.6755   -0.3933 C.3     1  UNL1        0.1895
      8 O          21.2799   75.0350    0.5872 O.3     1  UNL1       -0.3779
      9 C          21.9500   75.3593   -1.7517 C.3     1  UNL1        0.1713
     10 C          22.2406   74.2638   -2.7956 C.3     1  UNL1        0.1764
     11 O          22.7076   73.1051   -2.0838 O.3     1  UNL1       -0.3308
     12 O          20.5812   75.7663   -1.8119 O.3     1  UNL1       -0.3794
     13 H          21.3987   75.9778    0.7676 H       1  UNL1        0.2106
     14 H          20.4482   76.4050   -1.0988 H       1  UNL1        0.2105
     15 N          22.9301   72.3584    0.1763 N.ar    1  UNL1       -0.2551
     16 C          22.5348   71.1049    0.4590 C.ar    1  UNL1        0.3323
     17 N          23.2367   70.3318    1.3087 N.ar    1  UNL1       -0.2743
     18 C          24.3499   70.8097    1.9004 C.ar    1  UNL1        0.2626
     19 C          24.7741   72.1297    1.6163 C.ar    1  UNL1        0.0795
     20 C          24.0543   72.8815    0.7561 C.ar    1  UNL1        0.0869
     21 O          21.5329   70.6596   -0.0668 O.2     1  UNL1       -0.2464
     22 O          24.9827   70.1133    2.6725 O.2     1  UNL1       -0.2670
     23 H          22.9396   69.4283    1.4975 H       1  UNL1        0.1734
     24 O          20.9575   74.1288   -5.8846 O.3     1  UNL1       -0.2703
     25 P          20.8656   72.5393   -6.1176 P.3     1  UNL1        0.2208
     26 O          21.9115   71.8626   -5.3194 O.2     1  UNL1       -0.5170
     27 O          21.0863   72.2113   -7.6783 O.3     1  UNL1       -0.4371
     28 O          19.4157   72.0115   -5.6596 O.3     1  UNL1       -0.2865
     29 C          19.4271   70.5902   -5.8048 C.3     1  UNL1        0.2611
     30 C          18.2717   70.1660   -6.7131 C.3     1  UNL1        0.1582
     31 C          16.9499   70.6363   -6.0955 C.3     1  UNL1        0.1625
     32 C          16.8707   70.1193   -4.6551 C.3     1  UNL1        0.1686
     33 C          18.1306   70.5498   -3.9011 C.3     1  UNL1        0.1760
     34 O          15.8557   70.1184   -6.8544 O.3     1  UNL1       -0.3801
     35 O          15.7175   70.6671   -4.0135 O.3     1  UNL1       -0.3794
     36 O          19.2825   69.9818   -4.5233 O.3     1  UNL1       -0.3263
     37 H          15.0466   70.4383   -6.4321 H       1  UNL1        0.2105
     38 H          15.7067   70.3173   -3.1113 H       1  UNL1        0.2105
     39 C          18.9550   70.0521   -9.0485 C.2     1  UNL1        0.2231
     40 C          19.1277   70.6781  -10.4089 C.3     1  UNL1        0.0946
     41 N          18.4391   70.7736   -8.0349 N.am    1  UNL1       -0.2994
     42 O          19.2814   68.8987   -8.8661 O.2     1  UNL1       -0.2751
     43 H          18.1781   71.6968   -8.1805 H       1  UNL1        0.1496
     44 C          18.0465   70.0661   -2.4519 C.3     1  UNL1        0.1693
     45 O          17.4195   68.7826   -2.4133 O.3     1  UNL1       -0.3794
     46 H          17.3861   68.5153   -1.4849 H       1  UNL1        0.2105
@<TRIPOS>BOND
     1    29    30    1
     2    29    28    1
     3    29    36    1
     4    30    31    1
     5    30    41    1
     6    31    32    1
     7    31    34    1
     8    32    33    1
     9    32    35    1
    10    33    44    1
    11    33    36    1
    12    44    45    1
    13    39    40    1
    14    39    41   am
    15    39    42    2
    16    41    43    1
    17    28    25    1
    18    34    37    1
    19    35    38    1
    20    45    46    1
    21    15    16   ar
    22    15    20   ar
    23    15     6    1
    24    16    17   ar
    25    16    21    2
    26    17    18   ar
    27    17    23    1
    28    18    19   ar
    29    18    22    2
    30    19    20   ar
    31     6     7    1
    32     6    11    1
    33     7     8    1
    34     7     9    1
    35     8    13    1
    36     9    10    1
    37     9    12    1
    38    10    11    1
    39    10     5    1
    40    12    14    1
    41     5     4    1
    42     4     1    1
    43     1     2    2
    44     1     3    1
    45     1    24    1
    46    24    25    1
    47    25    26    2
    48    25    27    1
