@<TRIPOS>MOLECULE
*****
 43 45 0 0 0
SMALL
GASTEIGER

@<TRIPOS>ATOM
      1 P          22.6901   71.5108   -2.6084 P.3     1  UNL1        0.2189
      2 O          23.0371   72.9953   -3.1513 O.co2   1  UNL1       -0.4371
      3 O          23.4908   70.4051   -3.2316 O.2     1  UNL1       -0.5170
      4 O          21.0852   71.3993   -2.7808 O.3     1  UNL1       -0.3112
      5 C          20.4521   72.2077   -3.7556 C.3     1  UNL1        0.1811
      6 O          18.3168   72.3283   -4.8527 O.3     1  UNL1       -0.3308
      7 O          17.2100   70.9214   -2.4471 O.3     1  UNL1       -0.3794
      8 O          17.4231   68.9053   -4.2708 O.3     1  UNL1       -0.3779
      9 C          18.4735   70.7534   -3.0904 C.3     1  UNL1        0.1713
     10 C          18.3021   70.0038   -4.3946 C.3     1  UNL1        0.1895
     11 C          18.9429   72.1208   -3.5681 C.3     1  UNL1        0.1764
     12 C          17.7595   71.0865   -5.3117 C.3     1  UNL1        0.2383
     13 H          16.8896   70.0609   -2.1332 H       1  UNL1        0.2105
     14 H          17.8137   68.2440   -3.6775 H       1  UNL1        0.2106
     15 O          15.9381   70.5665   -7.4066 O.2     1  UNL1       -0.2464
     16 O          19.3183   70.3246  -10.5306 O.2     1  UNL1       -0.2670
     17 N          18.1364   70.8837   -6.6820 N.ar    1  UNL1       -0.2551
     18 N          17.6234   70.4455   -8.9603 N.ar    1  UNL1       -0.2743
     19 C          17.1432   70.6287   -7.6569 C.ar    1  UNL1        0.3323
     20 C          19.4756   70.9397   -7.0485 C.ar    1  UNL1        0.0869
     21 C          19.9181   70.7631   -8.2950 C.ar    1  UNL1        0.0795
     22 C          18.9452   70.4913   -9.3734 C.ar    1  UNL1        0.2626
     23 H          16.9508   70.2646   -9.6562 H       1  UNL1        0.1734
     24 O          22.8746   71.6569   -1.0092 O.3     1  UNL1       -0.2703
     25 P          22.4910   70.6542    0.1995 P.3     1  UNL1        0.2208
     26 O          23.7417   69.6273    0.2392 O.co2   1  UNL1       -0.4371
     27 O          21.1519   69.9922    0.0490 O.2     1  UNL1       -0.5170
     28 O          22.6518   71.5435    1.5358 O.3     1  UNL1       -0.2858
     29 O          21.7524   72.3834    3.5593 O.3     1  UNL1       -0.3226
     30 O          21.2896   75.6156    1.0282 O.3     1  UNL1       -0.3794
     31 O          20.7024   72.9096    0.0971 O.3     1  UNL1       -0.3775
     32 O          23.4046   75.6152    3.0227 O.3     1  UNL1       -0.3792
     33 C          21.9165   74.4385    1.5374 C.3     1  UNL1        0.1718
     34 C          20.9423   73.2631    1.4544 C.3     1  UNL1        0.1968
     35 C          22.3083   74.7032    2.9929 C.3     1  UNL1        0.1723
     36 C          21.4912   72.0440    2.1970 C.3     1  UNL1        0.2706
     37 C          22.7246   73.4169    3.7005 C.3     1  UNL1        0.1830
     38 H          21.0318   75.4709    0.1042 H       1  UNL1        0.2105
     39 H          20.3543   73.6786   -0.3802 H       1  UNL1        0.2106
     40 H          23.1529   76.4381    2.5752 H       1  UNL1        0.2106
     41 O          23.9413   74.2360    5.5308 O.co2   1  UNL1       -0.5466
     42 O          21.9161   73.2848    5.9700 O.co2   1  UNL1       -0.5466
     43 C          22.7851   73.6208    5.1794 C.2     1  UNL1        0.0799
@<TRIPOS>UNITY_ATOM_ATTR
2 1
charge -1
26 1
charge -1
41 1
charge -1
@<TRIPOS>BOND
     1     1     4    1
     2     1    24    1
     3     1     2    1
     4     1     3    2
     5    25    28    1
     6    25    24    1
     7    25    26    1
     8    25    27    2
     9     6    11    1
    10     6    12    1
    11    29    36    1
    12    29    37    1
    13     7     9    1
    14     7    13    1
    15     8    10    1
    16     8    14    1
    17     4     5    1
    18    28    36    1
    19    30    33    1
    20    30    38    1
    21    31    34    1
    22    31    39    1
    23    32    35    1
    24    32    40    1
    25    41    43   ar
    26    15    19    2
    27    42    43   ar
    28    16    22    2
    29    17    12    1
    30    17    19   ar
    31    17    20   ar
    32    18    19   ar
    33    18    22   ar
    34    18    23    1
    35     9    10    1
    36     9    11    1
    37    10    12    1
    38    11     5    1
    39    33    34    1
    40    33    35    1
    41    34    36    1
    42    35    37    1
    43    37    43    1
    44    20    21   ar
    45    21    22   ar
@<TRIPOS>MOLECULE
*****
 43 45 0 0 0
SMALL
GASTEIGER

@<TRIPOS>ATOM
      1 P          21.9415   73.7434   -6.0053 P.3     1  UNL1        0.2189
      2 O          22.3064   75.3142   -6.1409 O.co2   1  UNL1       -0.4371
      3 O          22.8217   72.8181   -6.7932 O.2     1  UNL1       -0.5170
      4 O          20.3631   73.6796   -6.3555 O.3     1  UNL1       -0.3112
      5 C          19.8883   74.4091   -7.4721 C.3     1  UNL1        0.1811
      6 O          19.6410   72.0915   -8.0595 O.3     1  UNL1       -0.3308
      7 O          17.9705   73.0450  -10.3599 O.3     1  UNL1       -0.3794
      8 O          16.0933   72.2268   -8.5591 O.3     1  UNL1       -0.3779
      9 C          18.0654   73.5673   -9.0345 C.3     1  UNL1        0.1713
     10 C          17.3413   72.6615   -8.0611 C.3     1  UNL1        0.1895
     11 C          19.5121   73.4327   -8.5790 C.3     1  UNL1        0.1764
     12 C          18.3326   71.5227   -7.8928 C.3     1  UNL1        0.2383
     13 H          17.0549   73.1201  -10.6726 H       1  UNL1        0.2105
     14 H          15.4978   72.9880   -8.6482 H       1  UNL1        0.2106
     15 O          16.1426   69.9847   -6.9898 O.2     1  UNL1       -0.2464
     16 O          18.1265   69.2279   -2.8989 O.2     1  UNL1       -0.2670
     17 N          18.2507   70.9120   -6.5962 N.ar    1  UNL1       -0.2551
     18 N          17.1324   69.6101   -4.9528 N.ar    1  UNL1       -0.2743
     19 C          17.1060   70.1597   -6.2413 C.ar    1  UNL1        0.3323
     20 C          19.2962   71.0594   -5.6928 C.ar    1  UNL1        0.0869
     21 C          19.3069   70.5295   -4.4681 C.ar    1  UNL1        0.0795
     22 C          18.1486   69.7297   -4.0187 C.ar    1  UNL1        0.2626
     23 H          16.3455   69.0838   -4.6823 H       1  UNL1        0.1734
     24 O          21.9692   73.5011   -4.4073 O.3     1  UNL1       -0.2703
     25 P          23.1114   72.8775   -3.4480 P.3     1  UNL1        0.2208
     26 O          24.3926   73.8245   -3.7345 O.co2   1  UNL1       -0.4371
     27 O          23.3641   71.4133   -3.6630 O.2     1  UNL1       -0.5170
     28 O          22.6457   73.2640   -1.9526 O.3     1  UNL1       -0.2858
     29 O          21.6835   71.4944   -0.7069 O.3     1  UNL1       -0.3226
     30 O          20.8306   74.7603    1.6753 O.3     1  UNL1       -0.3794
     31 O          20.5379   74.9272   -1.2266 O.3     1  UNL1       -0.3775
     32 O          22.9572   72.9246    2.4227 O.3     1  UNL1       -0.3792
     33 C          21.5915   73.9878    0.7467 C.3     1  UNL1        0.1718
     34 C          20.7538   73.7205   -0.5041 C.3     1  UNL1        0.1968
     35 C          21.9695   72.6696    1.4259 C.3     1  UNL1        0.1723
     36 C          21.4448   72.7088   -1.4194 C.3     1  UNL1        0.2706
     37 C          22.5357   71.6685    0.4230 C.3     1  UNL1        0.1830
     38 H          20.5790   75.6029    1.2656 H       1  UNL1        0.2105
     39 H          20.1000   75.5738   -0.6517 H       1  UNL1        0.2106
     40 H          22.6094   73.5605    3.0673 H       1  UNL1        0.2106
     41 O          21.6073   69.5162    0.5066 O.co2   1  UNL1       -0.5466
     42 O          23.4094   69.9243    1.8427 O.co2   1  UNL1       -0.5466
     43 C          22.5916   70.2980    1.0154 C.2     1  UNL1        0.0799
@<TRIPOS>UNITY_ATOM_ATTR
2 1
charge -1
26 1
charge -1
41 1
charge -1
@<TRIPOS>BOND
     1     1     4    1
     2     1    24    1
     3     1     2    1
     4     1     3    2
     5    25    28    1
     6    25    24    1
     7    25    26    1
     8    25    27    2
     9     6    11    1
    10     6    12    1
    11    29    36    1
    12    29    37    1
    13     7     9    1
    14     7    13    1
    15     8    10    1
    16     8    14    1
    17     4     5    1
    18    28    36    1
    19    30    33    1
    20    30    38    1
    21    31    34    1
    22    31    39    1
    23    32    35    1
    24    32    40    1
    25    41    43   ar
    26    15    19    2
    27    42    43   ar
    28    16    22    2
    29    17    12    1
    30    17    19   ar
    31    17    20   ar
    32    18    19   ar
    33    18    22   ar
    34    18    23    1
    35     9    10    1
    36     9    11    1
    37    10    12    1
    38    11     5    1
    39    33    34    1
    40    33    35    1
    41    34    36    1
    42    35    37    1
    43    37    43    1
    44    20    21   ar
    45    21    22   ar
@<TRIPOS>MOLECULE
*****
 43 45 0 0 0
SMALL
GASTEIGER

@<TRIPOS>ATOM
      1 P          22.8401   71.7126   -2.2906 P.3     1  UNL1        0.2189
      2 O          23.4825   73.1925   -2.4171 O.co2   1  UNL1       -0.4371
      3 O          23.4187   70.6889   -3.2228 O.2     1  UNL1       -0.5170
      4 O          21.2481   71.9672   -2.4273 O.3     1  UNL1       -0.3112
      5 C          20.5543   71.3514   -3.4969 C.3     1  UNL1        0.1811
      6 O          18.6171   72.1719   -4.6596 O.3     1  UNL1       -0.3308
      7 O          17.0007   70.9233   -2.4642 O.3     1  UNL1       -0.3794
      8 O          16.7694   69.1045   -4.4827 O.3     1  UNL1       -0.3779
      9 C          18.2087   70.4633   -3.0706 C.3     1  UNL1        0.1713
     10 C          17.9254   69.9152   -4.4532 C.3     1  UNL1        0.1895
     11 C          19.0713   71.6791   -3.3804 C.3     1  UNL1        0.1764
     12 C          17.7693   71.1863   -5.2705 C.3     1  UNL1        0.2383
     13 H          16.4330   70.1640   -2.2570 H       1  UNL1        0.2105
     14 H          16.9191   68.3083   -3.9483 H       1  UNL1        0.2106
     15 O          16.0308   70.3889   -7.3485 O.2     1  UNL1       -0.2464
     16 O          19.4083   70.5444  -10.4810 O.2     1  UNL1       -0.2670
     17 N          18.1680   71.0107   -6.6383 N.ar    1  UNL1       -0.2551
     18 N          17.7148   70.4662   -8.9065 N.ar    1  UNL1       -0.2743
     19 C          17.2164   70.6073   -7.6047 C.ar    1  UNL1        0.3323
     20 C          19.4871   71.2387   -7.0110 C.ar    1  UNL1        0.0869
     21 C          19.9473   71.1001   -8.2559 C.ar    1  UNL1        0.0795
     22 C          19.0179   70.6809   -9.3254 C.ar    1  UNL1        0.2626
     23 H          17.0714   70.1842   -9.5963 H       1  UNL1        0.1734
     24 O          23.0200   71.3719   -0.7208 O.3     1  UNL1       -0.2703
     25 P          22.0611   70.5765    0.3095 P.3     1  UNL1        0.2208
     26 O          23.1081   69.8996    1.3418 O.co2   1  UNL1       -0.4371
     27 O          21.1238   69.6046   -0.3470 O.2     1  UNL1       -0.5170
     28 O          21.3335   71.7329    1.1672 O.3     1  UNL1       -0.2858
     29 O          21.8702   74.0388    1.2312 O.3     1  UNL1       -0.3226
     30 O          20.2510   73.4481    4.9858 O.3     1  UNL1       -0.3794
     31 O          22.0786   71.4808    3.8351 O.3     1  UNL1       -0.3775
     32 O          18.7030   74.7908    2.9238 O.3     1  UNL1       -0.3792
     33 C          20.4094   73.2237    3.5849 C.3     1  UNL1        0.1718
     34 C          21.8430   72.7769    3.2971 C.3     1  UNL1        0.1968
     35 C          20.1048   74.5356    2.8584 C.3     1  UNL1        0.1723
     36 C          22.1156   72.7487    1.7926 C.3     1  UNL1        0.2706
     37 C          20.5206   74.4697    1.3916 C.3     1  UNL1        0.1830
     38 H          20.4395   72.6277    5.4683 H       1  UNL1        0.2105
     39 H          21.9072   71.4913    4.7895 H       1  UNL1        0.2106
     40 H          18.4254   74.8350    3.8522 H       1  UNL1        0.2106
     41 O          21.7640   76.3870    0.8631 O.co2   1  UNL1       -0.5466
     42 O          19.5615   76.3802    0.2729 O.co2   1  UNL1       -0.5466
     43 C          20.5289   75.8332    0.7808 C.2     1  UNL1        0.0799
@<TRIPOS>UNITY_ATOM_ATTR
2 1
charge -1
26 1
charge -1
41 1
charge -1
@<TRIPOS>BOND
     1     1     4    1
     2     1    24    1
     3     1     2    1
     4     1     3    2
     5    25    28    1
     6    25    24    1
     7    25    26    1
     8    25    27    2
     9     6    11    1
    10     6    12    1
    11    29    36    1
    12    29    37    1
    13     7     9    1
    14     7    13    1
    15     8    10    1
    16     8    14    1
    17     4     5    1
    18    28    36    1
    19    30    33    1
    20    30    38    1
    21    31    34    1
    22    31    39    1
    23    32    35    1
    24    32    40    1
    25    41    43   ar
    26    15    19    2
    27    42    43   ar
    28    16    22    2
    29    17    12    1
    30    17    19   ar
    31    17    20   ar
    32    18    19   ar
    33    18    22   ar
    34    18    23    1
    35     9    10    1
    36     9    11    1
    37    10    12    1
    38    11     5    1
    39    33    34    1
    40    33    35    1
    41    34    36    1
    42    35    37    1
    43    37    43    1
    44    20    21   ar
    45    21    22   ar
@<TRIPOS>MOLECULE
*****
 43 45 0 0 0
SMALL
GASTEIGER

@<TRIPOS>ATOM
      1 P          23.0396   71.9519   -3.3378 P.3     1  UNL1        0.2189
      2 O          23.7942   72.9739   -4.3403 O.co2   1  UNL1       -0.4371
      3 O          23.6472   70.5824   -3.2538 O.2     1  UNL1       -0.5170
      4 O          21.4951   72.0071   -3.8169 O.3     1  UNL1       -0.3112
      5 C          20.6594   70.9000   -3.5336 C.3     1  UNL1        0.1811
      6 O          18.8163   71.9650   -4.6501 O.3     1  UNL1       -0.3308
      7 O          17.0884   70.8375   -2.4743 O.3     1  UNL1       -0.3794
      8 O          16.6405   69.1175   -4.5424 O.3     1  UNL1       -0.3779
      9 C          18.2330   70.2650   -3.1073 C.3     1  UNL1        0.1713
     10 C          17.8797   69.7938   -4.5021 C.3     1  UNL1        0.1895
     11 C          19.2229   71.3865   -3.3911 C.3     1  UNL1        0.1764
     12 C          17.8595   71.0985   -5.2801 C.3     1  UNL1        0.2383
     13 H          16.4414   70.1399   -2.2831 H       1  UNL1        0.2105
     14 H          16.7050   68.2938   -4.0332 H       1  UNL1        0.2106
     15 O          16.0443   70.4379   -7.3404 O.2     1  UNL1       -0.2464
     16 O          19.3753   70.4434  -10.5261 O.2     1  UNL1       -0.2670
     17 N          18.2254   70.9213   -6.6569 N.ar    1  UNL1       -0.2551
     18 N          17.7052   70.4403   -8.9249 N.ar    1  UNL1       -0.2743
     19 C          17.2365   70.5900   -7.6131 C.ar    1  UNL1        0.3323
     20 C          19.5497   71.0770   -7.0481 C.ar    1  UNL1        0.0869
     21 C          19.9812   70.9312   -8.3024 C.ar    1  UNL1        0.0795
     22 C          19.0119   70.5843   -9.3623 C.ar    1  UNL1        0.2626
     23 H          17.0354   70.2076   -9.6080 H       1  UNL1        0.1734
     24 O          23.0160   72.7649   -1.9409 O.3     1  UNL1       -0.2703
     25 P          22.7951   74.3362   -1.6309 P.3     1  UNL1        0.2208
     26 O          21.6403   74.7618   -2.6823 O.co2   1  UNL1       -0.4371
     27 O          24.0455   75.1626   -1.7176 O.2     1  UNL1       -0.5170
     28 O          22.0680   74.3710   -0.1913 O.3     1  UNL1       -0.2858
     29 O          21.2126   72.1794    0.0809 O.3     1  UNL1       -0.3226
     30 O          20.3419   73.8825    3.7428 O.3     1  UNL1       -0.3794
     31 O          19.9350   75.3904    1.2740 O.3     1  UNL1       -0.3775
     32 O          22.5548   72.0142    3.4917 O.3     1  UNL1       -0.3792
     33 C          21.0926   73.6790    2.5457 C.3     1  UNL1        0.1718
     34 C          20.2178   73.9972    1.3328 C.3     1  UNL1        0.1968
     35 C          21.5393   72.2158    2.5106 C.3     1  UNL1        0.1723
     36 C          20.9071   73.5737    0.0350 C.3     1  UNL1        0.2706
     37 C          22.1004   71.8373    1.1429 C.3     1  UNL1        0.1830
     38 H          20.0472   74.8058    3.7869 H       1  UNL1        0.2105
     39 H          19.4978   75.6661    2.0945 H       1  UNL1        0.2106
     40 H          22.2106   72.2516    4.3669 H       1  UNL1        0.2106
     41 O          23.3335   69.9080    1.6517 O.co2   1  UNL1       -0.5466
     42 O          21.4371   69.6345    0.4156 O.co2   1  UNL1       -0.5466
     43 C          22.2239   70.3541    1.0123 C.2     1  UNL1        0.0799
@<TRIPOS>UNITY_ATOM_ATTR
2 1
charge -1
26 1
charge -1
41 1
charge -1
@<TRIPOS>BOND
     1     1     4    1
     2     1    24    1
     3     1     2    1
     4     1     3    2
     5    25    28    1
     6    25    24    1
     7    25    26    1
     8    25    27    2
     9     6    11    1
    10     6    12    1
    11    29    36    1
    12    29    37    1
    13     7     9    1
    14     7    13    1
    15     8    10    1
    16     8    14    1
    17     4     5    1
    18    28    36    1
    19    30    33    1
    20    30    38    1
    21    31    34    1
    22    31    39    1
    23    32    35    1
    24    32    40    1
    25    41    43   ar
    26    15    19    2
    27    42    43   ar
    28    16    22    2
    29    17    12    1
    30    17    19   ar
    31    17    20   ar
    32    18    19   ar
    33    18    22   ar
    34    18    23    1
    35     9    10    1
    36     9    11    1
    37    10    12    1
    38    11     5    1
    39    33    34    1
    40    33    35    1
    41    34    36    1
    42    35    37    1
    43    37    43    1
    44    20    21   ar
    45    21    22   ar
@<TRIPOS>MOLECULE
*****
 43 45 0 0 0
SMALL
GASTEIGER

@<TRIPOS>ATOM
      1 P          21.4990   70.5402   -1.3953 P.3     1  UNL1        0.2189
      2 O          23.1114   70.6775   -1.4073 O.co2   1  UNL1       -0.4371
      3 O          20.9722   69.2177   -1.8702 O.2     1  UNL1       -0.5170
      4 O          20.9925   71.8358   -2.2216 O.3     1  UNL1       -0.3112
      5 C          20.4106   71.6392   -3.4972 C.3     1  UNL1        0.1811
      6 O          18.4606   72.3574   -4.7054 O.3     1  UNL1       -0.3308
      7 O          16.8613   71.1069   -2.4986 O.3     1  UNL1       -0.3794
      8 O          16.7241   69.2294   -4.4714 O.3     1  UNL1       -0.3779
      9 C          18.0934   70.6764   -3.0774 C.3     1  UNL1        0.1713
     10 C          17.8492   70.0828   -4.4486 C.3     1  UNL1        0.1895
     11 C          18.9151   71.9149   -3.4081 C.3     1  UNL1        0.1764
     12 C          17.6579   71.3257   -5.3009 C.3     1  UNL1        0.2383
     13 H          16.3190   70.3328   -2.2788 H       1  UNL1        0.2105
     14 H          16.8956   68.4533   -3.9144 H       1  UNL1        0.2106
     15 O          16.0036   70.3223   -7.3583 O.2     1  UNL1       -0.2464
     16 O          19.3886   70.6153  -10.4726 O.2     1  UNL1       -0.2670
     17 N          18.0813   71.1297   -6.6585 N.ar    1  UNL1       -0.2551
     18 N          17.6914   70.4682   -8.9072 N.ar    1  UNL1       -0.2743
     19 C          17.1717   70.6198   -7.6149 C.ar    1  UNL1        0.3323
     20 C          19.3828   71.4427   -7.0311 C.ar    1  UNL1        0.0869
     21 C          19.8637   71.2929   -8.2669 C.ar    1  UNL1        0.0795
     22 C          18.9784   70.7650   -9.3256 C.ar    1  UNL1        0.2626
     23 H          17.0774   70.1129   -9.5899 H       1  UNL1        0.1734
     24 O          21.1146   70.9093    0.1307 O.3     1  UNL1       -0.2703
     25 P          22.0416   71.3305    1.3865 P.3     1  UNL1        0.2208
     26 O          23.0464   70.0711    1.5434 O.co2   1  UNL1       -0.4371
     27 O          21.2745   71.6686    2.6321 O.2     1  UNL1       -0.5170
     28 O          22.9703   72.5252    0.8272 O.3     1  UNL1       -0.2858
     29 O          22.4060   74.6252    1.7657 O.3     1  UNL1       -0.3226
     30 O          25.1862   75.7021   -1.0942 O.3     1  UNL1       -0.3794
     31 O          23.1504   73.6935   -1.6904 O.3     1  UNL1       -0.3775
     32 O          25.9257   75.6605    1.7169 O.3     1  UNL1       -0.3792
     33 C          24.5848   74.8545   -0.1154 C.3     1  UNL1        0.1718
     34 C          23.1523   74.5243   -0.5352 C.3     1  UNL1        0.1968
     35 C          24.5895   75.5988    1.2217 C.3     1  UNL1        0.1723
     36 C          22.4024   73.8123    0.5915 C.3     1  UNL1        0.2706
     37 C          23.7182   74.8918    2.2559 C.3     1  UNL1        0.1830
     38 H          25.1943   75.2500   -1.9526 H       1  UNL1        0.2105
     39 H          23.6248   74.1391   -2.4093 H       1  UNL1        0.2106
     40 H          26.4907   76.1081    1.0680 H       1  UNL1        0.2106
     41 O          22.7237   76.8554    3.0662 O.co2   1  UNL1       -0.5466
     42 O          23.8613   75.5698    4.5670 O.co2   1  UNL1       -0.5466
     43 C          23.4636   75.7790    3.4307 C.2     1  UNL1        0.0799
@<TRIPOS>UNITY_ATOM_ATTR
2 1
charge -1
26 1
charge -1
41 1
charge -1
@<TRIPOS>BOND
     1     1     4    1
     2     1    24    1
     3     1     2    1
     4     1     3    2
     5    25    28    1
     6    25    24    1
     7    25    26    1
     8    25    27    2
     9     6    11    1
    10     6    12    1
    11    29    36    1
    12    29    37    1
    13     7     9    1
    14     7    13    1
    15     8    10    1
    16     8    14    1
    17     4     5    1
    18    28    36    1
    19    30    33    1
    20    30    38    1
    21    31    34    1
    22    31    39    1
    23    32    35    1
    24    32    40    1
    25    41    43   ar
    26    15    19    2
    27    42    43   ar
    28    16    22    2
    29    17    12    1
    30    17    19   ar
    31    17    20   ar
    32    18    19   ar
    33    18    22   ar
    34    18    23    1
    35     9    10    1
    36     9    11    1
    37    10    12    1
    38    11     5    1
    39    33    34    1
    40    33    35    1
    41    34    36    1
    42    35    37    1
    43    37    43    1
    44    20    21   ar
    45    21    22   ar
@<TRIPOS>MOLECULE
*****
 43 45 0 0 0
SMALL
GASTEIGER

@<TRIPOS>ATOM
      1 P          22.9340   71.9912   -3.0363 P.3     1  UNL1        0.2189
      2 O          23.6505   70.5522   -3.2223 O.co2   1  UNL1       -0.4371
      3 O          22.7781   72.4422   -1.6135 O.2     1  UNL1       -0.5170
      4 O          21.5628   71.8551   -3.8844 O.3     1  UNL1       -0.3112
      5 C          20.7067   70.7603   -3.6144 C.3     1  UNL1        0.1811
      6 O          18.8721   71.8777   -4.6931 O.3     1  UNL1       -0.3308
      7 O          17.1485   70.7556   -2.5110 O.3     1  UNL1       -0.3794
      8 O          16.6401   69.0736   -4.5963 O.3     1  UNL1       -0.3779
      9 C          18.2732   70.1688   -3.1660 C.3     1  UNL1        0.1713
     10 C          17.8932   69.7240   -4.5625 C.3     1  UNL1        0.1895
     11 C          19.2823   71.2738   -3.4471 C.3     1  UNL1        0.1764
     12 C          17.8900   71.0394   -5.3225 C.3     1  UNL1        0.2383
     13 H          16.4899   70.0687   -2.3210 H       1  UNL1        0.2105
     14 H          16.6940   68.2419   -4.0990 H       1  UNL1        0.2106
     15 O          16.0331   70.4668   -7.3720 O.2     1  UNL1       -0.2464
     16 O          19.3273   70.4246  -10.5954 O.2     1  UNL1       -0.2670
     17 N          18.2353   70.8737   -6.7060 N.ar    1  UNL1       -0.2551
     18 N          17.6757   70.4453   -8.9753 N.ar    1  UNL1       -0.2743
     19 C          17.2263   70.5877   -7.6559 C.ar    1  UNL1        0.3323
     20 C          19.5592   70.9962   -7.1100 C.ar    1  UNL1        0.0869
     21 C          19.9722   70.8579   -8.3714 C.ar    1  UNL1        0.0795
     22 C          18.9813   70.5574   -9.4254 C.ar    1  UNL1        0.2626
     23 H          16.9918   70.2439   -9.6542 H       1  UNL1        0.1734
     24 O          23.8354   72.9672   -3.9570 O.3     1  UNL1       -0.2703
     25 P          23.9209   74.5801   -4.0270 P.3     1  UNL1        0.2208
     26 O          25.5133   74.8682   -3.9840 O.co2   1  UNL1       -0.4371
     27 O          23.1358   75.2853   -2.9592 O.2     1  UNL1       -0.5170
     28 O          23.4812   74.9483   -5.5348 O.3     1  UNL1       -0.2858
     29 O          21.5272   76.0097   -6.3500 O.3     1  UNL1       -0.3226
     30 O          22.4100   73.3966   -9.4258 O.3     1  UNL1       -0.3794
     31 O          22.6404   72.5395   -6.6425 O.3     1  UNL1       -0.3775
     32 O          22.9785   76.2331   -9.7124 O.3     1  UNL1       -0.3792
     33 C          22.6999   74.2741   -8.3377 C.3     1  UNL1        0.1718
     34 C          22.0290   73.7524   -7.0668 C.3     1  UNL1        0.1968
     35 C          22.1610   75.6618   -8.6928 C.3     1  UNL1        0.1723
     36 C          22.1232   74.7792   -5.9374 C.3     1  UNL1        0.2706
     37 C          22.1716   76.5901   -7.4818 C.3     1  UNL1        0.1830
     38 H          22.7432   72.5084   -9.2227 H       1  UNL1        0.2105
     39 H          22.5845   71.8835   -7.3545 H       1  UNL1        0.2106
     40 H          22.9804   75.6518  -10.4889 H       1  UNL1        0.2106
     41 O          20.1390   77.4775   -8.2448 O.co2   1  UNL1       -0.5466
     42 O          21.7196   78.9595   -7.5347 O.co2   1  UNL1       -0.5466
     43 C          21.3535   77.8126   -7.7433 C.2     1  UNL1        0.0799
@<TRIPOS>UNITY_ATOM_ATTR
2 1
charge -1
26 1
charge -1
41 1
charge -1
@<TRIPOS>BOND
     1     1     4    1
     2     1    24    1
     3     1     2    1
     4     1     3    2
     5    25    28    1
     6    25    24    1
     7    25    26    1
     8    25    27    2
     9     6    11    1
    10     6    12    1
    11    29    36    1
    12    29    37    1
    13     7     9    1
    14     7    13    1
    15     8    10    1
    16     8    14    1
    17     4     5    1
    18    28    36    1
    19    30    33    1
    20    30    38    1
    21    31    34    1
    22    31    39    1
    23    32    35    1
    24    32    40    1
    25    41    43   ar
    26    15    19    2
    27    42    43   ar
    28    16    22    2
    29    17    12    1
    30    17    19   ar
    31    17    20   ar
    32    18    19   ar
    33    18    22   ar
    34    18    23    1
    35     9    10    1
    36     9    11    1
    37    10    12    1
    38    11     5    1
    39    33    34    1
    40    33    35    1
    41    34    36    1
    42    35    37    1
    43    37    43    1
    44    20    21   ar
    45    21    22   ar
@<TRIPOS>MOLECULE
*****
 43 45 0 0 0
SMALL
GASTEIGER

@<TRIPOS>ATOM
      1 P          21.6274   70.4093   -1.0396 P.3     1  UNL1        0.2189
      2 O          23.1050   70.7279   -1.6174 O.co2   1  UNL1       -0.4371
      3 O          21.6018   69.5943    0.2201 O.2     1  UNL1       -0.5170
      4 O          20.8446   69.7726   -2.3044 O.3     1  UNL1       -0.3112
      5 C          20.6078   70.5913   -3.4350 C.3     1  UNL1        0.1811
      6 O          18.9028   71.8461   -4.5735 O.3     1  UNL1       -0.3308
      7 O          17.0249   70.8646   -2.4517 O.3     1  UNL1       -0.3794
      8 O          16.4578   69.2239   -4.5547 O.3     1  UNL1       -0.3779
      9 C          18.1221   70.1912   -3.0692 C.3     1  UNL1        0.1713
     10 C          17.7558   69.7751   -4.4781 C.3     1  UNL1        0.1895
     11 C          19.2228   71.2141   -3.3151 C.3     1  UNL1        0.1764
     12 C          17.8803   71.0856   -5.2364 C.3     1  UNL1        0.2383
     13 H          16.3090   70.2312   -2.2848 H       1  UNL1        0.2105
     14 H          16.4302   68.3913   -4.0568 H       1  UNL1        0.2106
     15 O          16.0668   70.5104   -7.3238 O.2     1  UNL1       -0.2464
     16 O          19.4411   70.3603  -10.4600 O.2     1  UNL1       -0.2670
     17 N          18.2579   70.8914   -6.6078 N.ar    1  UNL1       -0.2551
     18 N          17.7493   70.4352   -8.8836 N.ar    1  UNL1       -0.2743
     19 C          17.2688   70.6066   -7.5787 C.ar    1  UNL1        0.3323
     20 C          19.5936   70.9852   -6.9793 C.ar    1  UNL1        0.0869
     21 C          20.0363   70.8194   -8.2272 C.ar    1  UNL1        0.0795
     22 C          19.0676   70.5181   -9.3016 C.ar    1  UNL1        0.2626
     23 H          17.0795   70.2340   -9.5767 H       1  UNL1        0.1734
     24 O          20.9660   71.8781   -0.9049 O.3     1  UNL1       -0.2703
     25 P          21.6110   73.2974   -0.4767 P.3     1  UNL1        0.2208
     26 O          20.4534   74.3611   -0.8625 O.co2   1  UNL1       -0.4371
     27 O          22.9455   73.5814   -1.1031 O.2     1  UNL1       -0.5170
     28 O          21.6202   73.2728    1.1363 O.3     1  UNL1       -0.2858
     29 O          20.6059   74.5644    2.8428 O.3     1  UNL1       -0.3226
     30 O          24.3993   73.9813    4.3720 O.3     1  UNL1       -0.3794
     31 O          24.0233   74.6123    1.5445 O.3     1  UNL1       -0.3775
     32 O          22.1516   72.4710    5.4294 O.3     1  UNL1       -0.3792
     33 C          23.2301   73.6470    3.6242 C.3     1  UNL1        0.1718
     34 C          23.0035   74.6942    2.5334 C.3     1  UNL1        0.1968
     35 C          22.0431   73.6189    4.5897 C.3     1  UNL1        0.1723
     36 C          21.6428   74.5001    1.8629 C.3     1  UNL1        0.2706
     37 C          20.7161   73.5506    3.8394 C.3     1  UNL1        0.1830
     38 H          25.1667   74.0052    3.7790 H       1  UNL1        0.2105
     39 H          24.8895   74.7343    1.9630 H       1  UNL1        0.2106
     40 H          22.9921   72.5021    5.9126 H       1  UNL1        0.2106
     41 O          20.0251   74.2198    5.9786 O.co2   1  UNL1       -0.5466
     42 O          18.3929   73.7847    4.4470 O.co2   1  UNL1       -0.5466
     43 C          19.5737   73.8532    4.7535 C.2     1  UNL1        0.0799
@<TRIPOS>UNITY_ATOM_ATTR
2 1
charge -1
26 1
charge -1
41 1
charge -1
@<TRIPOS>BOND
     1     1     4    1
     2     1    24    1
     3     1     2    1
     4     1     3    2
     5    25    28    1
     6    25    24    1
     7    25    26    1
     8    25    27    2
     9     6    11    1
    10     6    12    1
    11    29    36    1
    12    29    37    1
    13     7     9    1
    14     7    13    1
    15     8    10    1
    16     8    14    1
    17     4     5    1
    18    28    36    1
    19    30    33    1
    20    30    38    1
    21    31    34    1
    22    31    39    1
    23    32    35    1
    24    32    40    1
    25    41    43   ar
    26    15    19    2
    27    42    43   ar
    28    16    22    2
    29    17    12    1
    30    17    19   ar
    31    17    20   ar
    32    18    19   ar
    33    18    22   ar
    34    18    23    1
    35     9    10    1
    36     9    11    1
    37    10    12    1
    38    11     5    1
    39    33    34    1
    40    33    35    1
    41    34    36    1
    42    35    37    1
    43    37    43    1
    44    20    21   ar
    45    21    22   ar
@<TRIPOS>MOLECULE
*****
 43 45 0 0 0
SMALL
GASTEIGER

@<TRIPOS>ATOM
      1 P          21.5440   71.8224   -1.3078 P.3     1  UNL1        0.2189
      2 O          21.9462   71.1025    0.0846 O.co2   1  UNL1       -0.4371
      3 O          20.4356   72.8286   -1.2036 O.2     1  UNL1       -0.5170
      4 O          21.2802   70.5888   -2.3210 O.3     1  UNL1       -0.3112
      5 C          20.7424   70.8680   -3.6005 C.3     1  UNL1        0.1811
      6 O          18.8977   71.9571   -4.6908 O.3     1  UNL1       -0.3308
      7 O          17.1830   70.8357   -2.5014 O.3     1  UNL1       -0.3794
      8 O          16.6948   69.1310   -4.5731 O.3     1  UNL1       -0.3779
      9 C          18.3146   70.2551   -3.1501 C.3     1  UNL1        0.1713
     10 C          17.9411   69.7946   -4.5432 C.3     1  UNL1        0.1895
     11 C          19.3126   71.3680   -3.4394 C.3     1  UNL1        0.1764
     12 C          17.9252   71.1034   -5.3143 C.3     1  UNL1        0.2383
     13 H          16.5313   70.1436   -2.3065 H       1  UNL1        0.2105
     14 H          16.7567   68.3040   -4.0687 H       1  UNL1        0.2106
     15 O          16.0779   70.4883   -7.3602 O.2     1  UNL1       -0.2464
     16 O          19.3756   70.4594  -10.5802 O.2     1  UNL1       -0.2670
     17 N          18.2740   70.9297   -6.6960 N.ar    1  UNL1       -0.2551
     18 N          17.7223   70.4735   -8.9618 N.ar    1  UNL1       -0.2743
     19 C          17.2697   70.6220   -7.6442 C.ar    1  UNL1        0.3323
     20 C          19.5966   71.0656   -7.0999 C.ar    1  UNL1        0.0869
     21 C          20.0127   70.9213   -8.3596 C.ar    1  UNL1        0.0795
     22 C          19.0267   70.5984   -9.4118 C.ar    1  UNL1        0.2626
     23 H          17.0417   70.2571   -9.6395 H       1  UNL1        0.1734
     24 O          22.9524   72.4233   -1.8257 O.3     1  UNL1       -0.2703
     25 P          23.2920   73.4380   -3.0376 P.3     1  UNL1        0.2208
     26 O          21.9062   74.2499   -3.2396 O.co2   1  UNL1       -0.4371
     27 O          23.8013   72.7654   -4.2795 O.2     1  UNL1       -0.5170
     28 O          24.3060   74.5164   -2.3965 O.3     1  UNL1       -0.2858
     29 O          24.2733   76.8844   -2.3723 O.3     1  UNL1       -0.3226
     30 O          28.3229   76.1021   -2.6091 O.3     1  UNL1       -0.3794
     31 O          26.4211   74.5596   -4.2023 O.3     1  UNL1       -0.3775
     32 O          27.1474   76.9611   -0.0929 O.3     1  UNL1       -0.3792
     33 C          26.9688   75.8590   -2.2280 C.3     1  UNL1        0.1718
     34 C          26.0982   75.7419   -3.4793 C.3     1  UNL1        0.1968
     35 C          26.5029   77.0326   -1.3634 C.3     1  UNL1        0.1723
     36 C          24.6139   75.7114   -3.1121 C.3     1  UNL1        0.2706
     37 C          24.9928   76.9999   -1.1467 C.3     1  UNL1        0.1830
     38 H          28.6407   75.3691   -3.1596 H       1  UNL1        0.2105
     39 H          27.3616   74.5722   -4.4382 H       1  UNL1        0.2106
     40 H          28.1093   76.9808   -0.2167 H       1  UNL1        0.2106
     41 O          24.6815   78.3443    0.7499 O.co2   1  UNL1       -0.5466
     42 O          24.0228   79.2064   -1.2555 O.co2   1  UNL1       -0.5466
     43 C          24.5079   78.3006   -0.5943 C.2     1  UNL1        0.0799
@<TRIPOS>UNITY_ATOM_ATTR
2 1
charge -1
26 1
charge -1
41 1
charge -1
@<TRIPOS>BOND
     1     1     4    1
     2     1    24    1
     3     1     2    1
     4     1     3    2
     5    25    28    1
     6    25    24    1
     7    25    26    1
     8    25    27    2
     9     6    11    1
    10     6    12    1
    11    29    36    1
    12    29    37    1
    13     7     9    1
    14     7    13    1
    15     8    10    1
    16     8    14    1
    17     4     5    1
    18    28    36    1
    19    30    33    1
    20    30    38    1
    21    31    34    1
    22    31    39    1
    23    32    35    1
    24    32    40    1
    25    41    43   ar
    26    15    19    2
    27    42    43   ar
    28    16    22    2
    29    17    12    1
    30    17    19   ar
    31    17    20   ar
    32    18    19   ar
    33    18    22   ar
    34    18    23    1
    35     9    10    1
    36     9    11    1
    37    10    12    1
    38    11     5    1
    39    33    34    1
    40    33    35    1
    41    34    36    1
    42    35    37    1
    43    37    43    1
    44    20    21   ar
    45    21    22   ar
@<TRIPOS>MOLECULE
*****
 43 45 0 0 0
SMALL
GASTEIGER

@<TRIPOS>ATOM
      1 P          20.5579   74.8086   -4.6004 P.3     1  UNL1        0.2189
      2 O          20.5919   75.9874   -3.4922 O.co2   1  UNL1       -0.4371
      3 O          21.0310   75.2098   -5.9668 O.2     1  UNL1       -0.5170
      4 O          19.0443   74.2425   -4.5191 O.3     1  UNL1       -0.3112
      5 C          18.6842   73.4312   -3.4161 C.3     1  UNL1        0.1811
      6 O          16.9336   72.9914   -5.0035 O.3     1  UNL1       -0.3308
      7 O          15.6356   71.3688   -2.8416 O.3     1  UNL1       -0.3794
      8 O          16.7913   69.4589   -4.4077 O.3     1  UNL1       -0.3779
      9 C          17.0219   71.5244   -3.1458 C.3     1  UNL1        0.1713
     10 C          17.3753   70.7447   -4.3945 C.3     1  UNL1        0.1895
     11 C          17.2459   72.9622   -3.5939 C.3     1  UNL1        0.1764
     12 C          16.8332   71.6444   -5.4921 C.3     1  UNL1        0.2383
     13 H          15.4679   70.4576   -2.5528 H       1  UNL1        0.2105
     14 H          17.1694   68.9247   -3.6909 H       1  UNL1        0.2106
     15 O          15.8494   72.3663   -8.0391 O.2     1  UNL1       -0.2464
     16 O          19.7948   71.1744  -10.1024 O.2     1  UNL1       -0.2670
     17 N          17.5821   71.5330   -6.7117 N.ar    1  UNL1       -0.2551
     18 N          17.8150   71.7710   -9.0645 N.ar    1  UNL1       -0.2743
     19 C          16.9950   71.9230   -7.9386 C.ar    1  UNL1        0.3323
     20 C          18.8826   71.0441   -6.6849 C.ar    1  UNL1        0.0869
     21 C          19.6519   70.9052   -7.7664 C.ar    1  UNL1        0.0795
     22 C          19.1138   71.2890   -9.0879 C.ar    1  UNL1        0.2626
     23 H          17.4274   72.0340   -9.9304 H       1  UNL1        0.1734
     24 O          21.4233   73.6330   -3.9064 O.3     1  UNL1       -0.2703
     25 P          22.9381   73.6221   -3.3416 P.3     1  UNL1        0.2208
     26 O          23.4023   75.1649   -3.4982 O.co2   1  UNL1       -0.4371
     27 O          23.8411   72.6328   -4.0198 O.2     1  UNL1       -0.5170
     28 O          22.7803   73.4037   -1.7511 O.3     1  UNL1       -0.2858
     29 O          21.6604   71.6406   -0.6348 O.3     1  UNL1       -0.3226
     30 O          21.2707   74.7336    2.0762 O.3     1  UNL1       -0.3794
     31 O          20.9047   75.2146   -0.7820 O.3     1  UNL1       -0.3775
     32 O          23.1931   72.6064    2.5559 O.3     1  UNL1       -0.3792
     33 C          21.9060   73.9748    1.0473 C.3     1  UNL1        0.1718
     34 C          21.0026   73.9266   -0.1852 C.3     1  UNL1        0.1968
     35 C          22.1504   72.5625    1.5836 C.3     1  UNL1        0.1723
     36 C          21.5411   72.9378   -1.2200 C.3     1  UNL1        0.2706
     37 C          22.5635   71.6067    0.4681 C.3     1  UNL1        0.1830
     38 H          21.1054   75.6351    1.7581 H       1  UNL1        0.2105
     39 H          20.5639   75.8472   -0.1309 H       1  UNL1        0.2106
     40 H          22.9428   73.2115    3.2714 H       1  UNL1        0.2106
     41 O          23.4065   69.9383    1.8849 O.co2   1  UNL1       -0.5466
     42 O          21.6857   69.3596    0.5054 O.co2   1  UNL1       -0.5466
     43 C          22.4792   70.1875    0.9273 C.2     1  UNL1        0.0799
@<TRIPOS>UNITY_ATOM_ATTR
2 1
charge -1
26 1
charge -1
41 1
charge -1
@<TRIPOS>BOND
     1     1     4    1
     2     1    24    1
     3     1     2    1
     4     1     3    2
     5    25    28    1
     6    25    24    1
     7    25    26    1
     8    25    27    2
     9     6    11    1
    10     6    12    1
    11    29    36    1
    12    29    37    1
    13     7     9    1
    14     7    13    1
    15     8    10    1
    16     8    14    1
    17     4     5    1
    18    28    36    1
    19    30    33    1
    20    30    38    1
    21    31    34    1
    22    31    39    1
    23    32    35    1
    24    32    40    1
    25    41    43   ar
    26    15    19    2
    27    42    43   ar
    28    16    22    2
    29    17    12    1
    30    17    19   ar
    31    17    20   ar
    32    18    19   ar
    33    18    22   ar
    34    18    23    1
    35     9    10    1
    36     9    11    1
    37    10    12    1
    38    11     5    1
    39    33    34    1
    40    33    35    1
    41    34    36    1
    42    35    37    1
    43    37    43    1
    44    20    21   ar
    45    21    22   ar
@<TRIPOS>MOLECULE
*****
 43 45 0 0 0
SMALL
GASTEIGER

@<TRIPOS>ATOM
      1 P          21.5940   72.3776   -1.6062 P.3     1  UNL1        0.2189
      2 O          23.0881   72.2955   -0.9900 O.co2   1  UNL1       -0.4371
      3 O          20.5255   72.7678   -0.6275 O.2     1  UNL1       -0.5170
      4 O          21.3935   70.9450   -2.3312 O.3     1  UNL1       -0.3112
      5 C          20.7567   70.9102   -3.5952 C.3     1  UNL1        0.1811
      6 O          18.8729   71.9275   -4.6879 O.3     1  UNL1       -0.3308
      7 O          17.2020   70.7549   -2.4915 O.3     1  UNL1       -0.3794
      8 O          16.7730   69.0246   -4.5550 O.3     1  UNL1       -0.3779
      9 C          18.3530   70.2124   -3.1391 C.3     1  UNL1        0.1713
     10 C          17.9947   69.7327   -4.5297 C.3     1  UNL1        0.1895
     11 C          19.3100   71.3593   -3.4344 C.3     1  UNL1        0.1764
     12 C          17.9310   71.0367   -5.3065 C.3     1  UNL1        0.2383
     13 H          16.5758   70.0407   -2.2927 H       1  UNL1        0.2105
     14 H          16.8652   68.2027   -4.0472 H       1  UNL1        0.2106
     15 O          16.1078   70.3304   -7.3446 O.2     1  UNL1       -0.2464
     16 O          19.3976   70.4229  -10.5715 O.2     1  UNL1       -0.2670
     17 N          18.2842   70.8695   -6.6879 N.ar    1  UNL1       -0.2551
     18 N          17.7483   70.3761   -8.9496 N.ar    1  UNL1       -0.2743
     19 C          17.2923   70.5132   -7.6319 C.ar    1  UNL1        0.3323
     20 C          19.5990   71.0595   -7.0954 C.ar    1  UNL1        0.0869
     21 C          20.0185   70.9253   -8.3551 C.ar    1  UNL1        0.0795
     22 C          19.0453   70.5540   -9.4032 C.ar    1  UNL1        0.2626
     23 H          17.0762   70.1265   -9.6245 H       1  UNL1        0.1734
     24 O          21.7702   73.3934   -2.8512 O.3     1  UNL1       -0.2703
     25 P          23.0962   73.9228   -3.6096 P.3     1  UNL1        0.2208
     26 O          23.8997   72.5584   -3.9457 O.co2   1  UNL1       -0.4371
     27 O          23.8895   74.9318   -2.8309 O.2     1  UNL1       -0.5170
     28 O          22.5673   74.4470   -5.0407 O.3     1  UNL1       -0.2858
     29 O          23.6396   75.5464   -6.8437 O.3     1  UNL1       -0.3226
     30 O          19.9141   77.3321   -6.8661 O.3     1  UNL1       -0.3794
     31 O          21.2960   76.8206   -4.3436 O.3     1  UNL1       -0.3775
     32 O          20.5866   75.3340   -8.8677 O.3     1  UNL1       -0.3792
     33 C          20.8507   76.2736   -6.6649 C.3     1  UNL1        0.1718
     34 C          21.8918   76.7014   -5.6302 C.3     1  UNL1        0.1968
     35 C          21.5244   75.9769   -8.0066 C.3     1  UNL1        0.1723
     36 C          23.0375   75.6909   -5.5568 C.3     1  UNL1        0.2706
     37 C          22.7335   75.0624   -7.8326 C.3     1  UNL1        0.1830
     38 H          19.4735   77.5381   -6.0266 H       1  UNL1        0.2105
     39 H          20.5680   77.4600   -4.3828 H       1  UNL1        0.2106
     40 H          19.8121   75.9057   -8.9866 H       1  UNL1        0.2106
     41 O          23.1506   74.0684   -9.9158 O.co2   1  UNL1       -0.5466
     42 O          24.4978   75.8027   -9.3025 O.co2   1  UNL1       -0.5466
     43 C          23.5678   75.0445   -9.0719 C.2     1  UNL1        0.0799
@<TRIPOS>UNITY_ATOM_ATTR
2 1
charge -1
26 1
charge -1
41 1
charge -1
@<TRIPOS>BOND
     1     1     4    1
     2     1    24    1
     3     1     2    1
     4     1     3    2
     5    25    28    1
     6    25    24    1
     7    25    26    1
     8    25    27    2
     9     6    11    1
    10     6    12    1
    11    29    36    1
    12    29    37    1
    13     7     9    1
    14     7    13    1
    15     8    10    1
    16     8    14    1
    17     4     5    1
    18    28    36    1
    19    30    33    1
    20    30    38    1
    21    31    34    1
    22    31    39    1
    23    32    35    1
    24    32    40    1
    25    41    43   ar
    26    15    19    2
    27    42    43   ar
    28    16    22    2
    29    17    12    1
    30    17    19   ar
    31    17    20   ar
    32    18    19   ar
    33    18    22   ar
    34    18    23    1
    35     9    10    1
    36     9    11    1
    37    10    12    1
    38    11     5    1
    39    33    34    1
    40    33    35    1
    41    34    36    1
    42    35    37    1
    43    37    43    1
    44    20    21   ar
    45    21    22   ar
@<TRIPOS>MOLECULE
*****
 43 45 0 0 0
SMALL
GASTEIGER

@<TRIPOS>ATOM
      1 P          22.0618   71.9230   -3.4657 P.3     1  UNL1        0.2189
      2 O          20.4943   72.3095   -3.3540 O.co2   1  UNL1       -0.4371
      3 O          22.3912   70.5031   -3.1091 O.2     1  UNL1       -0.5170
      4 O          22.8057   73.0590   -2.5860 O.3     1  UNL1       -0.3112
      5 C          22.5040   73.1508   -1.2058 C.3     1  UNL1        0.1811
      6 O          20.5719   73.0383    0.2197 O.3     1  UNL1       -0.3308
      7 O          19.4968   75.3436   -1.3681 O.3     1  UNL1       -0.3794
      8 O          20.4202   76.5565    0.8929 O.3     1  UNL1       -0.3779
      9 C          20.8417   75.0633   -0.9792 C.3     1  UNL1        0.1713
     10 C          21.0305   75.3463    0.4961 C.3     1  UNL1        0.1895
     11 C          21.0446   73.5557   -1.0429 C.3     1  UNL1        0.1764
     12 C          20.3853   74.1288    1.1359 C.3     1  UNL1        0.2383
     13 H          19.3432   76.3012   -1.3351 H       1  UNL1        0.2105
     14 H          20.8666   77.3012    0.4592 H       1  UNL1        0.2106
     15 O          21.1320   71.5120    1.8916 O.2     1  UNL1       -0.2464
     16 O          22.6791   72.9412    5.9914 O.2     1  UNL1       -0.2670
     17 N          20.9853   73.7887    2.3950 N.ar    1  UNL1       -0.2551
     18 N          21.9009   72.2262    3.9332 N.ar    1  UNL1       -0.2743
     19 C          21.3223   72.4435    2.6758 C.ar    1  UNL1        0.3323
     20 C          21.2354   74.7814    3.3347 C.ar    1  UNL1        0.0869
     21 C          21.7877   74.5588    4.5289 C.ar    1  UNL1        0.0795
     22 C          22.1687   73.1805    4.9012 C.ar    1  UNL1        0.2626
     23 H          22.1423   71.2971    4.1523 H       1  UNL1        0.1734
     24 O          22.4308   72.3390   -4.9835 O.3     1  UNL1       -0.2703
     25 P          21.8716   73.5295   -5.9235 P.3     1  UNL1        0.2208
     26 O          22.9197   73.5501   -7.1570 O.co2   1  UNL1       -0.4371
     27 O          21.7168   74.8475   -5.2215 O.2     1  UNL1       -0.5170
     28 O          20.5083   72.9444   -6.5573 O.3     1  UNL1       -0.2858
     29 O          19.4566   70.8269   -6.4190 O.3     1  UNL1       -0.3226
     30 O          18.6325   71.9218  -10.3164 O.3     1  UNL1       -0.3794
     31 O          21.2787   72.3959   -9.1730 O.3     1  UNL1       -0.3775
     32 O          16.5569   72.0779   -8.2870 O.3     1  UNL1       -0.3792
     33 C          18.8790   72.1367   -8.9268 C.3     1  UNL1        0.1718
     34 C          20.2654   71.6036   -8.5646 C.3     1  UNL1        0.1968
     35 C          17.7999   71.3950   -8.1348 C.3     1  UNL1        0.1723
     36 C          20.4738   71.6060   -7.0495 C.3     1  UNL1        0.2706
     37 C          18.1433   71.3322   -6.6493 C.3     1  UNL1        0.1830
     38 H          19.3062   72.3839  -10.8398 H       1  UNL1        0.2105
     39 H          21.1524   72.3990  -10.1345 H       1  UNL1        0.2106
     40 H          16.3269   72.1248   -9.2281 H       1  UNL1        0.2106
     41 O          17.5662   70.3041   -4.6216 O.co2   1  UNL1       -0.5466
     42 O          16.4152   69.6569   -6.4806 O.co2   1  UNL1       -0.5466
     43 C          17.2743   70.3414   -5.9454 C.2     1  UNL1        0.0799
@<TRIPOS>UNITY_ATOM_ATTR
2 1
charge -1
26 1
charge -1
41 1
charge -1
@<TRIPOS>BOND
     1     1     4    1
     2     1    24    1
     3     1     2    1
     4     1     3    2
     5    25    28    1
     6    25    24    1
     7    25    26    1
     8    25    27    2
     9     6    11    1
    10     6    12    1
    11    29    36    1
    12    29    37    1
    13     7     9    1
    14     7    13    1
    15     8    10    1
    16     8    14    1
    17     4     5    1
    18    28    36    1
    19    30    33    1
    20    30    38    1
    21    31    34    1
    22    31    39    1
    23    32    35    1
    24    32    40    1
    25    41    43   ar
    26    15    19    2
    27    42    43   ar
    28    16    22    2
    29    17    12    1
    30    17    19   ar
    31    17    20   ar
    32    18    19   ar
    33    18    22   ar
    34    18    23    1
    35     9    10    1
    36     9    11    1
    37    10    12    1
    38    11     5    1
    39    33    34    1
    40    33    35    1
    41    34    36    1
    42    35    37    1
    43    37    43    1
    44    20    21   ar
    45    21    22   ar
@<TRIPOS>MOLECULE
*****
 43 45 0 0 0
SMALL
GASTEIGER

@<TRIPOS>ATOM
      1 P          21.9119   73.7507   -6.8017 P.3     1  UNL1        0.2189
      2 O          21.8496   75.3678   -6.8053 O.co2   1  UNL1       -0.4371
      3 O          22.9165   73.1532   -7.7428 O.2     1  UNL1       -0.5170
      4 O          20.3752   73.3021   -7.0369 O.3     1  UNL1       -0.3112
      5 C          19.9794   72.0054   -6.6290 C.3     1  UNL1        0.1811
      6 O          17.7994   71.2721   -7.3272 O.3     1  UNL1       -0.3308
      7 O          18.8943   71.2825  -10.1187 O.3     1  UNL1       -0.3794
      8 O          17.4823   73.6135  -10.0238 O.3     1  UNL1       -0.3779
      9 C          19.1719   72.1708   -9.0359 C.3     1  UNL1        0.1713
     10 C          18.0028   73.1066   -8.8127 C.3     1  UNL1        0.1895
     11 C          19.1777   71.3560   -7.7497 C.3     1  UNL1        0.1764
     12 C          17.0170   72.2111   -8.0819 C.3     1  UNL1        0.2383
     13 H          18.8853   71.7805  -10.9516 H       1  UNL1        0.2105
     14 H          18.1471   74.1772  -10.4507 H       1  UNL1        0.2106
     15 O          16.4297   71.4130   -5.4371 O.2     1  UNL1       -0.2464
     16 O          13.7657   75.1053   -4.7203 O.2     1  UNL1       -0.2670
     17 N          16.1729   72.9452   -7.1822 N.ar    1  UNL1       -0.2551
     18 N          15.1026   73.2522   -5.0830 N.ar    1  UNL1       -0.2743
     19 C          15.9421   72.4571   -5.8743 C.ar    1  UNL1        0.3323
     20 C          15.5854   74.1343   -7.5968 C.ar    1  UNL1        0.0869
     21 C          14.7877   74.8813   -6.8311 C.ar    1  UNL1        0.0795
     22 C          14.4948   74.4416   -5.4511 C.ar    1  UNL1        0.2626
     23 H          14.9255   72.9318   -4.1690 H       1  UNL1        0.1734
     24 O          22.1581   73.4005   -5.2429 O.3     1  UNL1       -0.2703
     25 P          22.9621   74.1990   -4.0898 P.3     1  UNL1        0.2208
     26 O          22.1314   75.5812   -3.9492 O.co2   1  UNL1       -0.4371
     27 O          24.4249   74.3828   -4.3736 O.2     1  UNL1       -0.5170
     28 O          22.6401   73.3904   -2.7315 O.3     1  UNL1       -0.2858
     29 O          22.1015   71.2151   -1.9651 O.3     1  UNL1       -0.3226
     30 O          19.0836   73.4735   -0.2739 O.3     1  UNL1       -0.3794
     31 O          19.9339   73.9616   -3.0259 O.3     1  UNL1       -0.3775
     32 O          21.2891   72.5241    1.3648 O.3     1  UNL1       -0.3792
     33 C          20.3989   73.2149   -0.7648 C.3     1  UNL1        0.1718
     34 C          20.3280   72.8392   -2.2451 C.3     1  UNL1        0.1968
     35 C          20.9893   72.0614    0.0494 C.3     1  UNL1        0.1723
     36 C          21.6816   72.3341   -2.7468 C.3     1  UNL1        0.2706
     37 C          22.2717   71.5308   -0.5851 C.3     1  UNL1        0.1830
     38 H          18.6883   74.2031   -0.7766 H       1  UNL1        0.2105
     39 H          19.0759   74.2875   -2.7128 H       1  UNL1        0.2106
     40 H          20.4812   72.8647    1.7798 H       1  UNL1        0.2106
     41 O          21.5862   69.6291    0.6045 O.co2   1  UNL1       -0.5466
     42 O          23.7769   69.7319   -0.0196 O.co2   1  UNL1       -0.5466
     43 C          22.6561   70.2174    0.0145 C.2     1  UNL1        0.0799
@<TRIPOS>UNITY_ATOM_ATTR
2 1
charge -1
26 1
charge -1
41 1
charge -1
@<TRIPOS>BOND
     1     1     4    1
     2     1    24    1
     3     1     2    1
     4     1     3    2
     5    25    28    1
     6    25    24    1
     7    25    26    1
     8    25    27    2
     9     6    11    1
    10     6    12    1
    11    29    36    1
    12    29    37    1
    13     7     9    1
    14     7    13    1
    15     8    10    1
    16     8    14    1
    17     4     5    1
    18    28    36    1
    19    30    33    1
    20    30    38    1
    21    31    34    1
    22    31    39    1
    23    32    35    1
    24    32    40    1
    25    41    43   ar
    26    15    19    2
    27    42    43   ar
    28    16    22    2
    29    17    12    1
    30    17    19   ar
    31    17    20   ar
    32    18    19   ar
    33    18    22   ar
    34    18    23    1
    35     9    10    1
    36     9    11    1
    37    10    12    1
    38    11     5    1
    39    33    34    1
    40    33    35    1
    41    34    36    1
    42    35    37    1
    43    37    43    1
    44    20    21   ar
    45    21    22   ar
@<TRIPOS>MOLECULE
*****
 43 45 0 0 0
SMALL
GASTEIGER

@<TRIPOS>ATOM
      1 P          21.2598   70.3384   -1.2270 P.3     1  UNL1        0.2189
      2 O          22.6173   70.4880   -2.0952 O.co2   1  UNL1       -0.4371
      3 O          21.4525   69.8091    0.1639 O.2     1  UNL1       -0.5170
      4 O          20.2827   69.4698   -2.1803 O.3     1  UNL1       -0.3112
      5 C          20.0829   69.8994   -3.5145 C.3     1  UNL1        0.1811
      6 O          18.9883   71.8993   -4.2760 O.3     1  UNL1       -0.3308
      7 O          16.4222   70.3692   -4.0207 O.3     1  UNL1       -0.3794
      8 O          16.9121   70.2680   -6.7013 O.3     1  UNL1       -0.3779
      9 C          17.7102   69.9111   -4.4325 C.3     1  UNL1        0.1713
     10 C          18.0175   70.3996   -5.8322 C.3     1  UNL1        0.1895
     11 C          18.7564   70.6429   -3.6029 C.3     1  UNL1        0.1764
     12 C          18.3969   71.8495   -5.5841 C.3     1  UNL1        0.2383
     13 H          15.7370   69.9156   -4.5370 H       1  UNL1        0.2105
     14 H          16.7102   69.3271   -6.8275 H       1  UNL1        0.2106
     15 O          17.7134   72.8314   -8.1424 O.2     1  UNL1       -0.2464
     16 O          22.1173   73.7049   -9.1846 O.2     1  UNL1       -0.2670
     17 N          19.3450   72.3398   -6.5441 N.ar    1  UNL1       -0.2551
     18 N          19.9075   73.2646   -8.6594 N.ar    1  UNL1       -0.2743
     19 C          18.8974   72.8107   -7.8011 C.ar    1  UNL1        0.3323
     20 C          20.7001   72.3525   -6.2366 C.ar    1  UNL1        0.0869
     21 C          21.6511   72.7883   -7.0650 C.ar    1  UNL1        0.0795
     22 C          21.2679   73.2963   -8.3986 C.ar    1  UNL1        0.2626
     23 H          19.6205   73.5954   -9.5412 H       1  UNL1        0.1734
     24 O          20.6169   71.8196   -1.3008 O.3     1  UNL1       -0.2703
     25 P          21.1492   73.2372   -0.7344 P.3     1  UNL1        0.2208
     26 O          19.8526   74.1977   -0.8641 O.co2   1  UNL1       -0.4371
     27 O          22.3752   73.7563   -1.4282 O.2     1  UNL1       -0.5170
     28 O          21.3259   73.0038    0.8520 O.3     1  UNL1       -0.2858
     29 O          22.6823   74.7107    1.7771 O.3     1  UNL1       -0.3226
     30 O          22.0246   72.2886    5.0586 O.3     1  UNL1       -0.3794
     31 O          22.6049   71.1172    2.4461 O.3     1  UNL1       -0.3775
     32 O          20.6020   74.8103    4.7977 O.3     1  UNL1       -0.3792
     33 C          21.7077   72.9096    3.8129 C.3     1  UNL1        0.1718
     34 C          22.7371   72.4988    2.7598 C.3     1  UNL1        0.1968
     35 C          21.7341   74.4257    4.0200 C.3     1  UNL1        0.1723
     36 C          22.5674   73.3186    1.4799 C.3     1  UNL1        0.2706
     37 C          21.6875   75.1707    2.6891 C.3     1  UNL1        0.1830
     38 H          22.0138   71.3244    4.9514 H       1  UNL1        0.2105
     39 H          22.7112   70.5911    3.2537 H       1  UNL1        0.2106
     40 H          20.6196   74.3430    5.6475 H       1  UNL1        0.2106
     41 O          22.4417   77.1596    1.7007 O.co2   1  UNL1       -0.5466
     42 O          21.9809   77.2171    3.9331 O.co2   1  UNL1       -0.5466
     43 C          22.0421   76.6102    2.8743 C.2     1  UNL1        0.0799
@<TRIPOS>UNITY_ATOM_ATTR
2 1
charge -1
26 1
charge -1
41 1
charge -1
@<TRIPOS>BOND
     1     1     4    1
     2     1    24    1
     3     1     2    1
     4     1     3    2
     5    25    28    1
     6    25    24    1
     7    25    26    1
     8    25    27    2
     9     6    11    1
    10     6    12    1
    11    29    36    1
    12    29    37    1
    13     7     9    1
    14     7    13    1
    15     8    10    1
    16     8    14    1
    17     4     5    1
    18    28    36    1
    19    30    33    1
    20    30    38    1
    21    31    34    1
    22    31    39    1
    23    32    35    1
    24    32    40    1
    25    41    43   ar
    26    15    19    2
    27    42    43   ar
    28    16    22    2
    29    17    12    1
    30    17    19   ar
    31    17    20   ar
    32    18    19   ar
    33    18    22   ar
    34    18    23    1
    35     9    10    1
    36     9    11    1
    37    10    12    1
    38    11     5    1
    39    33    34    1
    40    33    35    1
    41    34    36    1
    42    35    37    1
    43    37    43    1
    44    20    21   ar
    45    21    22   ar
@<TRIPOS>MOLECULE
*****
 43 45 0 0 0
SMALL
GASTEIGER

@<TRIPOS>ATOM
      1 P          17.7200   75.1925   -1.9425 P.3     1  UNL1        0.2189
      2 O          16.8572   75.5178   -0.6126 O.co2   1  UNL1       -0.4371
      3 O          17.1737   75.7788   -3.2112 O.2     1  UNL1       -0.5170
      4 O          17.8733   73.5819   -1.9219 O.3     1  UNL1       -0.3112
      5 C          18.1858   72.9169   -3.1321 C.3     1  UNL1        0.1811
      6 O          17.1418   71.1277   -4.3513 O.3     1  UNL1       -0.3308
      7 O          18.1563   69.3125   -2.1909 O.3     1  UNL1       -0.3794
      8 O          19.9525   68.9069   -4.2022 O.3     1  UNL1       -0.3779
      9 C          18.7697   70.4685   -2.7619 C.3     1  UNL1        0.1713
     10 C          19.2922   70.1542   -4.1477 C.3     1  UNL1        0.1895
     11 C          17.6743   71.4840   -3.0572 C.3     1  UNL1        0.1764
     12 C          18.0200   70.1791   -4.9776 C.3     1  UNL1        0.2383
     13 H          18.8366   68.6492   -1.9936 H       1  UNL1        0.2105
     14 H          20.7556   68.9422   -3.6585 H       1  UNL1        0.2106
     15 O          16.1154   69.9984   -7.0552 O.2     1  UNL1       -0.2464
     16 O          19.0427   71.7752  -10.1403 O.2     1  UNL1       -0.2670
     17 N          18.2579   70.5873   -6.3332 N.ar    1  UNL1       -0.2551
     18 N          17.5756   70.8826   -8.5900 N.ar    1  UNL1       -0.2743
     19 C          17.2339   70.4542   -7.3005 C.ar    1  UNL1        0.3323
     20 C          19.4927   71.1139   -6.6923 C.ar    1  UNL1        0.0869
     21 C          19.8035   71.5180   -7.9256 C.ar    1  UNL1        0.0795
     22 C          18.7899   71.4122   -8.9955 C.ar    1  UNL1        0.2626
     23 H          16.8794   70.7978   -9.2811 H       1  UNL1        0.1734
     24 O          19.2018   75.7037   -1.5479 O.3     1  UNL1       -0.2703
     25 P          20.2421   75.1791   -0.4271 P.3     1  UNL1        0.2208
     26 O          19.2797   74.4912    0.6778 O.co2   1  UNL1       -0.4371
     27 O          21.1479   76.2445    0.1191 O.2     1  UNL1       -0.5170
     28 O          21.0078   73.9431   -1.1261 O.3     1  UNL1       -0.2858
     29 O          22.5206   72.4208   -0.1244 O.3     1  UNL1       -0.3226
     30 O          23.8419   72.4662   -4.0385 O.3     1  UNL1       -0.3794
     31 O          23.0612   74.9483   -2.7102 O.3     1  UNL1       -0.3775
     32 O          22.3141   70.2034   -3.0404 O.3     1  UNL1       -0.3792
     33 C          22.8796   72.5448   -2.9870 C.3     1  UNL1        0.1718
     34 C          23.2374   73.6996   -2.0511 C.3     1  UNL1        0.1968
     35 C          22.9007   71.2171   -2.2263 C.3     1  UNL1        0.1723
     36 C          22.3684   73.6736   -0.7929 C.3     1  UNL1        0.2706
     37 C          22.1152   71.3101   -0.9214 C.3     1  UNL1        0.1830
     38 H          23.8464   73.2992   -4.5359 H       1  UNL1        0.2105
     39 H          23.6096   74.9716   -3.5097 H       1  UNL1        0.2106
     40 H          22.8046   70.1342   -3.8743 H       1  UNL1        0.2106
     41 O          23.7021   69.7520   -0.1758 O.co2   1  UNL1       -0.5466
     42 O          21.6040   69.6020    0.7041 O.co2   1  UNL1       -0.5466
     43 C          22.4098   70.1399   -0.0404 C.2     1  UNL1        0.0799
@<TRIPOS>UNITY_ATOM_ATTR
2 1
charge -1
26 1
charge -1
41 1
charge -1
@<TRIPOS>BOND
     1     1     4    1
     2     1    24    1
     3     1     2    1
     4     1     3    2
     5    25    28    1
     6    25    24    1
     7    25    26    1
     8    25    27    2
     9     6    11    1
    10     6    12    1
    11    29    36    1
    12    29    37    1
    13     7     9    1
    14     7    13    1
    15     8    10    1
    16     8    14    1
    17     4     5    1
    18    28    36    1
    19    30    33    1
    20    30    38    1
    21    31    34    1
    22    31    39    1
    23    32    35    1
    24    32    40    1
    25    41    43   ar
    26    15    19    2
    27    42    43   ar
    28    16    22    2
    29    17    12    1
    30    17    19   ar
    31    17    20   ar
    32    18    19   ar
    33    18    22   ar
    34    18    23    1
    35     9    10    1
    36     9    11    1
    37    10    12    1
    38    11     5    1
    39    33    34    1
    40    33    35    1
    41    34    36    1
    42    35    37    1
    43    37    43    1
    44    20    21   ar
    45    21    22   ar
@<TRIPOS>MOLECULE
*****
 43 45 0 0 0
SMALL
GASTEIGER

@<TRIPOS>ATOM
      1 P          19.9800   71.0459   -4.1988 P.3     1  UNL1        0.2189
      2 O          20.4654   69.7763   -3.3206 O.co2   1  UNL1       -0.4371
      3 O          18.7909   71.7786   -3.6500 O.2     1  UNL1       -0.5170
      4 O          19.8069   70.4432   -5.6904 O.3     1  UNL1       -0.3112
      5 C          19.8751   71.3315   -6.7907 C.3     1  UNL1        0.1811
      6 O          17.6151   71.0716   -7.5669 O.3     1  UNL1       -0.3308
      7 O          18.7981   70.6132  -10.2839 O.3     1  UNL1       -0.3794
      8 O          17.9714   73.2081  -10.4240 O.3     1  UNL1       -0.3779
      9 C          19.2311   71.4936   -9.2466 C.3     1  UNL1        0.1713
     10 C          18.3067   72.6892   -9.1540 C.3     1  UNL1        0.1895
     11 C          18.9910   70.8012   -7.9120 C.3     1  UNL1        0.1764
     12 C          17.1080   72.1054   -8.4258 C.3     1  UNL1        0.2383
     13 H          18.9415   71.0340  -11.1464 H       1  UNL1        0.2105
     14 H          18.7675   73.5678  -10.8467 H       1  UNL1        0.2106
     15 O          16.1178   71.6274   -5.8243 O.2     1  UNL1       -0.2464
     16 O          14.4966   75.9261   -5.4542 O.2     1  UNL1       -0.2670
     17 N          16.4232   73.0820   -7.6270 N.ar    1  UNL1       -0.2551
     18 N          15.3104   73.7685   -5.6429 N.ar    1  UNL1       -0.2743
     19 C          15.9656   72.7398   -6.3325 C.ar    1  UNL1        0.3323
     20 C          16.2124   74.3617   -8.1258 C.ar    1  UNL1        0.0869
     21 C          15.5863   75.3317   -7.4565 C.ar    1  UNL1        0.0795
     22 C          15.0765   75.0563   -6.0973 C.ar    1  UNL1        0.2626
     23 H          14.9810   73.5535   -4.7403 H       1  UNL1        0.1734
     24 O          21.3228   71.9375   -4.3208 O.3     1  UNL1       -0.2703
     25 P          22.6907   71.9194   -3.4593 P.3     1  UNL1        0.2208
     26 O          23.6738   72.8874   -4.3060 O.co2   1  UNL1       -0.4371
     27 O          23.2418   70.5458   -3.2075 O.2     1  UNL1       -0.5170
     28 O          22.3450   72.7570   -2.1246 O.3     1  UNL1       -0.2858
     29 O          21.5007   71.5136   -0.2943 O.3     1  UNL1       -0.3226
     30 O          20.7447   75.3940    0.9053 O.3     1  UNL1       -0.3794
     31 O          20.2584   74.5766   -1.8569 O.3     1  UNL1       -0.3775
     32 O          22.9504   73.9074    2.0785 O.3     1  UNL1       -0.3792
     33 C          21.4573   74.3510    0.2403 C.3     1  UNL1        0.1718
     34 C          20.5443   73.6822   -0.7877 C.3     1  UNL1        0.1968
     35 C          21.9041   73.3363    1.2951 C.3     1  UNL1        0.1723
     36 C          21.1925   72.4187   -1.3551 C.3     1  UNL1        0.2706
     37 C          22.4219   72.0539    0.6504 C.3     1  UNL1        0.1830
     38 H          20.4507   76.0508    0.2547 H       1  UNL1        0.2105
     39 H          19.8472   75.3807   -1.5040 H       1  UNL1        0.2106
     40 H          22.6338   74.7246    2.4943 H       1  UNL1        0.2106
     41 O          22.4804   69.7462    1.0663 O.co2   1  UNL1       -0.5466
     42 O          22.6812   71.1327    2.8653 O.co2   1  UNL1       -0.5466
     43 C          22.5427   70.9622    1.6633 C.2     1  UNL1        0.0799
@<TRIPOS>UNITY_ATOM_ATTR
2 1
charge -1
26 1
charge -1
41 1
charge -1
@<TRIPOS>BOND
     1     1     4    1
     2     1    24    1
     3     1     2    1
     4     1     3    2
     5    25    28    1
     6    25    24    1
     7    25    26    1
     8    25    27    2
     9     6    11    1
    10     6    12    1
    11    29    36    1
    12    29    37    1
    13     7     9    1
    14     7    13    1
    15     8    10    1
    16     8    14    1
    17     4     5    1
    18    28    36    1
    19    30    33    1
    20    30    38    1
    21    31    34    1
    22    31    39    1
    23    32    35    1
    24    32    40    1
    25    41    43   ar
    26    15    19    2
    27    42    43   ar
    28    16    22    2
    29    17    12    1
    30    17    19   ar
    31    17    20   ar
    32    18    19   ar
    33    18    22   ar
    34    18    23    1
    35     9    10    1
    36     9    11    1
    37    10    12    1
    38    11     5    1
    39    33    34    1
    40    33    35    1
    41    34    36    1
    42    35    37    1
    43    37    43    1
    44    20    21   ar
    45    21    22   ar
@<TRIPOS>MOLECULE
*****
 43 45 0 0 0
SMALL
GASTEIGER

@<TRIPOS>ATOM
      1 P          18.1014   70.3245   -3.3520 P.3     1  UNL1        0.2189
      2 O          18.3138   69.0933   -2.3235 O.co2   1  UNL1       -0.4371
      3 O          16.7726   71.0141   -3.2490 O.2     1  UNL1       -0.5170
      4 O          18.4525   69.6881   -4.7976 O.3     1  UNL1       -0.3112
      5 C          19.0953   70.5058   -5.7582 C.3     1  UNL1        0.1811
      6 O          18.6147   72.7241   -6.5492 O.3     1  UNL1       -0.3308
      7 O          16.4098   71.4742   -8.1516 O.3     1  UNL1       -0.3794
      8 O          18.3734   71.8237  -10.0112 O.3     1  UNL1       -0.3779
      9 C          17.7042   70.9587   -7.8396 C.3     1  UNL1        0.1713
     10 C          18.7615   71.6635   -8.6628 C.3     1  UNL1        0.1895
     11 C          18.0564   71.3982   -6.4250 C.3     1  UNL1        0.1764
     12 C          18.8986   72.9884   -7.9323 C.3     1  UNL1        0.2383
     13 H          16.1629   71.2064   -9.0511 H       1  UNL1        0.2105
     14 H          18.3002   70.9524  -10.4323 H       1  UNL1        0.2106
     15 O          21.2628   71.4494   -8.0693 O.2     1  UNL1       -0.2464
     16 O          23.9125   75.2105   -8.3465 O.2     1  UNL1       -0.2670
     17 N          20.2197   73.5397   -8.0407 N.ar    1  UNL1       -0.2551
     18 N          22.5803   73.3241   -8.2062 N.ar    1  UNL1       -0.2743
     19 C          21.3409   72.6789   -8.1025 C.ar    1  UNL1        0.3323
     20 C          20.3947   74.9175   -8.0864 C.ar    1  UNL1        0.0869
     21 C          21.5823   75.5179   -8.1854 C.ar    1  UNL1        0.0795
     22 C          22.8046   74.6905   -8.2545 C.ar    1  UNL1        0.2626
     23 H          23.3758   72.7456   -8.2487 H       1  UNL1        0.1734
     24 O          19.3766   71.2717   -3.0526 O.3     1  UNL1       -0.2703
     25 P          20.9036   70.9056   -2.6679 P.3     1  UNL1        0.2208
     26 O          21.7700   71.9003   -3.6062 O.co2   1  UNL1       -0.4371
     27 O          21.2467   69.4525   -2.8246 O.2     1  UNL1       -0.5170
     28 O          21.0988   71.4823   -1.1740 O.3     1  UNL1       -0.2858
     29 O          22.9735   72.8130   -0.6051 O.3     1  UNL1       -0.3226
     30 O          21.6946   71.5313    3.1083 O.3     1  UNL1       -0.3794
     31 O          21.7560   69.6854    0.8448 O.3     1  UNL1       -0.3775
     32 O          21.1625   74.2546    2.2416 O.3     1  UNL1       -0.3792
     33 C          21.5477   71.9287    1.7450 C.3     1  UNL1        0.1718
     34 C          22.3437   70.9812    0.8472 C.3     1  UNL1        0.1968
     35 C          22.0752   73.3588    1.6099 C.3     1  UNL1        0.1723
     36 C          22.3993   71.5055   -0.5884 C.3     1  UNL1        0.2706
     37 C          22.2205   73.7630    0.1456 C.3     1  UNL1        0.1830
     38 H          21.3659   70.6251    3.2184 H       1  UNL1        0.2105
     39 H          21.7173   69.3467    1.7526 H       1  UNL1        0.2106
     40 H          21.0609   74.0082    3.1743 H       1  UNL1        0.2106
     41 O          24.2974   74.8065    0.4608 O.co2   1  UNL1       -0.5466
     42 O          22.6211   76.0725   -0.4260 O.co2   1  UNL1       -0.5466
     43 C          23.0321   75.0109    0.0178 C.2     1  UNL1        0.0799
@<TRIPOS>UNITY_ATOM_ATTR
2 1
charge -1
26 1
charge -1
41 1
charge -1
@<TRIPOS>BOND
     1     1     4    1
     2     1    24    1
     3     1     2    1
     4     1     3    2
     5    25    28    1
     6    25    24    1
     7    25    26    1
     8    25    27    2
     9     6    11    1
    10     6    12    1
    11    29    36    1
    12    29    37    1
    13     7     9    1
    14     7    13    1
    15     8    10    1
    16     8    14    1
    17     4     5    1
    18    28    36    1
    19    30    33    1
    20    30    38    1
    21    31    34    1
    22    31    39    1
    23    32    35    1
    24    32    40    1
    25    41    43   ar
    26    15    19    2
    27    42    43   ar
    28    16    22    2
    29    17    12    1
    30    17    19   ar
    31    17    20   ar
    32    18    19   ar
    33    18    22   ar
    34    18    23    1
    35     9    10    1
    36     9    11    1
    37    10    12    1
    38    11     5    1
    39    33    34    1
    40    33    35    1
    41    34    36    1
    42    35    37    1
    43    37    43    1
    44    20    21   ar
    45    21    22   ar
@<TRIPOS>MOLECULE
*****
 43 45 0 0 0
SMALL
GASTEIGER

@<TRIPOS>ATOM
      1 P          18.5216   70.1268   -3.1762 P.3     1  UNL1        0.2189
      2 O          20.0312   70.3800   -3.7014 O.co2   1  UNL1       -0.4371
      3 O          18.2821   68.7787   -2.5622 O.2     1  UNL1       -0.5170
      4 O          17.5993   70.4904   -4.4549 O.3     1  UNL1       -0.3112
      5 C          18.1927   71.1724   -5.5445 C.3     1  UNL1        0.1811
      6 O          16.2075   71.2212   -6.8988 O.3     1  UNL1       -0.3308
      7 O          17.9532   70.3134   -9.1616 O.3     1  UNL1       -0.3794
      8 O          17.6922   72.9845   -9.6448 O.3     1  UNL1       -0.3779
      9 C          18.2562   71.2042   -8.0876 C.3     1  UNL1        0.1713
     10 C          17.5802   72.5408   -8.3087 C.3     1  UNL1        0.1895
     11 C          17.5500   70.6926   -6.8395 C.3     1  UNL1        0.1764
     12 C          16.1455   72.2381   -7.9114 C.3     1  UNL1        0.2383
     13 H          18.3935   70.6198   -9.9702 H       1  UNL1        0.2105
     14 H          18.6240   73.1639   -9.8488 H       1  UNL1        0.2106
     15 O          14.8176   74.1770   -9.4778 O.2     1  UNL1       -0.2464
     16 O          13.5899   76.6062   -5.7582 O.2     1  UNL1       -0.2670
     17 N          15.4705   73.3874   -7.3781 N.ar    1  UNL1       -0.2551
     18 N          14.2083   75.3856   -7.6238 N.ar    1  UNL1       -0.2743
     19 C          14.8346   74.3010   -8.2517 C.ar    1  UNL1        0.3323
     20 C          15.4414   73.5996   -6.0051 C.ar    1  UNL1        0.0869
     21 C          14.8402   74.6381   -5.4213 C.ar    1  UNL1        0.0795
     22 C          14.1530   75.6396   -6.2629 C.ar    1  UNL1        0.2626
     23 H          13.7605   76.0362   -8.2116 H       1  UNL1        0.1734
     24 O          18.2699   71.3747   -2.1800 O.3     1  UNL1       -0.2703
     25 P          18.5151   72.9599   -2.3815 P.3     1  UNL1        0.2208
     26 O          18.5310   73.5274   -0.8656 O.co2   1  UNL1       -0.4371
     27 O          17.5164   73.6281   -3.2815 O.2     1  UNL1       -0.5170
     28 O          20.0461   73.0776   -2.8763 O.3     1  UNL1       -0.2858
     29 O          21.3790   72.4377   -1.0262 O.3     1  UNL1       -0.3226
     30 O          24.2386   73.1007   -3.9332 O.3     1  UNL1       -0.3794
     31 O          21.9790   74.9282   -3.6347 O.3     1  UNL1       -0.3775
     32 O          23.5107   70.3848   -3.1950 O.3     1  UNL1       -0.3792
     33 C          22.9599   72.7190   -3.4262 C.3     1  UNL1        0.1718
     34 C          22.3200   73.9059   -2.7055 C.3     1  UNL1        0.1968
     35 C          23.1648   71.5541   -2.4550 C.3     1  UNL1        0.1723
     36 C          21.0595   73.4749   -1.9544 C.3     1  UNL1        0.2706
     37 C          21.8981   71.2674   -1.6539 C.3     1  UNL1        0.1830
     38 H          24.1335   73.8398   -4.5529 H       1  UNL1        0.2105
     39 H          22.7742   75.2062   -4.1151 H       1  UNL1        0.2106
     40 H          24.3153   70.5540   -3.7095 H       1  UNL1        0.2106
     41 O          23.5304   70.1775   -0.3696 O.co2   1  UNL1       -0.5466
     42 O          21.3541   69.8742    0.2393 O.co2   1  UNL1       -0.5466
     43 C          22.1940   70.3695   -0.4970 C.2     1  UNL1        0.0799
@<TRIPOS>UNITY_ATOM_ATTR
2 1
charge -1
26 1
charge -1
41 1
charge -1
@<TRIPOS>BOND
     1     1     4    1
     2     1    24    1
     3     1     2    1
     4     1     3    2
     5    25    28    1
     6    25    24    1
     7    25    26    1
     8    25    27    2
     9     6    11    1
    10     6    12    1
    11    29    36    1
    12    29    37    1
    13     7     9    1
    14     7    13    1
    15     8    10    1
    16     8    14    1
    17     4     5    1
    18    28    36    1
    19    30    33    1
    20    30    38    1
    21    31    34    1
    22    31    39    1
    23    32    35    1
    24    32    40    1
    25    41    43   ar
    26    15    19    2
    27    42    43   ar
    28    16    22    2
    29    17    12    1
    30    17    19   ar
    31    17    20   ar
    32    18    19   ar
    33    18    22   ar
    34    18    23    1
    35     9    10    1
    36     9    11    1
    37    10    12    1
    38    11     5    1
    39    33    34    1
    40    33    35    1
    41    34    36    1
    42    35    37    1
    43    37    43    1
    44    20    21   ar
    45    21    22   ar
@<TRIPOS>MOLECULE
*****
 43 45 0 0 0
SMALL
GASTEIGER

@<TRIPOS>ATOM
      1 P          21.5417   73.4563   -5.8822 P.3     1  UNL1        0.2189
      2 O          21.2721   74.8981   -6.5658 O.co2   1  UNL1       -0.4371
      3 O          22.3400   72.4986   -6.7173 O.2     1  UNL1       -0.5170
      4 O          20.0673   72.9501   -5.4486 O.3     1  UNL1       -0.3112
      5 C          19.8678   71.5676   -5.2178 C.3     1  UNL1        0.1811
      6 O          17.6053   72.3787   -5.1875 O.3     1  UNL1       -0.3308
      7 O          16.8538   69.6921   -4.0882 O.3     1  UNL1       -0.3794
      8 O          16.1646   69.4739   -6.7175 O.3     1  UNL1       -0.3779
      9 C          17.8502   70.0264   -5.0545 C.3     1  UNL1        0.1713
     10 C          17.2017   70.3707   -6.3786 C.3     1  UNL1        0.1895
     11 C          18.4709   71.3562   -4.6485 C.3     1  UNL1        0.1764
     12 C          16.6959   71.7806   -6.1249 C.3     1  UNL1        0.2383
     13 H          16.4430   68.8458   -4.3264 H       1  UNL1        0.2105
     14 H          16.5376   68.5909   -6.8693 H       1  UNL1        0.2106
     15 O          18.6426   71.6606   -8.1676 O.2     1  UNL1       -0.2464
     16 O          16.4841   74.8776  -10.6649 O.2     1  UNL1       -0.2670
     17 N          16.6671   72.5757   -7.3198 N.ar    1  UNL1       -0.2551
     18 N          17.5662   73.2637   -9.4090 N.ar    1  UNL1       -0.2743
     19 C          17.6940   72.4390   -8.2836 C.ar    1  UNL1        0.3323
     20 C          15.6301   73.4768   -7.5285 C.ar    1  UNL1        0.0869
     21 C          15.5217   74.2561   -8.6063 C.ar    1  UNL1        0.0795
     22 C          16.5538   74.1754   -9.6607 C.ar    1  UNL1        0.2626
     23 H          18.2703   73.1878  -10.0929 H       1  UNL1        0.1734
     24 O          22.2222   73.8463   -4.4689 O.3     1  UNL1       -0.2703
     25 P          23.1922   73.0021   -3.4891 P.3     1  UNL1        0.2208
     26 O          24.5948   73.8056   -3.5750 O.co2   1  UNL1       -0.4371
     27 O          23.2932   71.5434   -3.8298 O.2     1  UNL1       -0.5170
     28 O          22.6392   73.3060   -2.0044 O.3     1  UNL1       -0.2858
     29 O          21.6924   71.4649   -0.8542 O.3     1  UNL1       -0.3226
     30 O          20.5434   74.6314    1.5377 O.3     1  UNL1       -0.3794
     31 O          20.4142   74.8507   -1.3726 O.3     1  UNL1       -0.3775
     32 O          22.7089   72.8816    2.3741 O.3     1  UNL1       -0.3792
     33 C          21.3942   73.9172    0.6409 C.3     1  UNL1        0.1718
     34 C          20.6455   73.6394   -0.6628 C.3     1  UNL1        0.1968
     35 C          21.7951   72.6031    1.3149 C.3     1  UNL1        0.1723
     36 C          21.4374   72.6826   -1.5552 C.3     1  UNL1        0.2706
     37 C          22.4672   71.6532    0.3279 C.3     1  UNL1        0.1830
     38 H          20.2757   75.4704    1.1306 H       1  UNL1        0.2105
     39 H          19.9123   75.4626   -0.8121 H       1  UNL1        0.2106
     40 H          22.2934   73.4855    3.0093 H       1  UNL1        0.2106
     41 O          21.5557   69.4936    0.4125 O.co2   1  UNL1       -0.5466
     42 O          23.4066   69.8919    1.6832 O.co2   1  UNL1       -0.5466
     43 C          22.5546   70.2736    0.8950 C.2     1  UNL1        0.0799
@<TRIPOS>UNITY_ATOM_ATTR
2 1
charge -1
26 1
charge -1
41 1
charge -1
@<TRIPOS>BOND
     1     1     4    1
     2     1    24    1
     3     1     2    1
     4     1     3    2
     5    25    28    1
     6    25    24    1
     7    25    26    1
     8    25    27    2
     9     6    11    1
    10     6    12    1
    11    29    36    1
    12    29    37    1
    13     7     9    1
    14     7    13    1
    15     8    10    1
    16     8    14    1
    17     4     5    1
    18    28    36    1
    19    30    33    1
    20    30    38    1
    21    31    34    1
    22    31    39    1
    23    32    35    1
    24    32    40    1
    25    41    43   ar
    26    15    19    2
    27    42    43   ar
    28    16    22    2
    29    17    12    1
    30    17    19   ar
    31    17    20   ar
    32    18    19   ar
    33    18    22   ar
    34    18    23    1
    35     9    10    1
    36     9    11    1
    37    10    12    1
    38    11     5    1
    39    33    34    1
    40    33    35    1
    41    34    36    1
    42    35    37    1
    43    37    43    1
    44    20    21   ar
    45    21    22   ar
@<TRIPOS>MOLECULE
*****
 43 45 0 0 0
SMALL
GASTEIGER

@<TRIPOS>ATOM
      1 P          22.5208   73.0953   -4.5598 P.3     1  UNL1        0.2189
      2 O          21.8175   74.5519   -4.5099 O.co2   1  UNL1       -0.4371
      3 O          23.9194   73.0482   -4.0181 O.2     1  UNL1       -0.5170
      4 O          22.3482   72.6331   -6.1007 O.3     1  UNL1       -0.3112
      5 C          21.1470   72.9611   -6.7745 C.3     1  UNL1        0.1811
      6 O          19.0043   71.8757   -6.8653 O.3     1  UNL1       -0.3308
      7 O          20.2889   69.9057   -8.7254 O.3     1  UNL1       -0.3794
      8 O          18.9268   71.5374  -10.4337 O.3     1  UNL1       -0.3779
      9 C          20.5112   71.3107   -8.6033 C.3     1  UNL1        0.1713
     10 C          19.3511   72.0788   -9.2003 C.3     1  UNL1        0.1895
     11 C          20.4100   71.6759   -7.1286 C.3     1  UNL1        0.1764
     12 C          18.2972   71.9535   -8.1133 C.3     1  UNL1        0.2383
     13 H          20.3486   69.6485   -9.6592 H       1  UNL1        0.2105
     14 H          19.6321   71.6417  -11.0923 H       1  UNL1        0.2106
     15 O          19.0570   74.6007   -8.7388 O.2     1  UNL1       -0.2464
     16 O          14.8090   76.2021   -7.9427 O.2     1  UNL1       -0.2670
     17 N          17.4099   73.0814   -8.0777 N.ar    1  UNL1       -0.2551
     18 N          16.9408   75.3959   -8.3408 N.ar    1  UNL1       -0.2743
     19 C          17.8920   74.3695   -8.4099 C.ar    1  UNL1        0.3323
     20 C          16.0790   72.9058   -7.7187 C.ar    1  UNL1        0.0869
     21 C          15.1841   73.8938   -7.6574 C.ar    1  UNL1        0.0795
     22 C          15.6067   75.2705   -7.9885 C.ar    1  UNL1        0.2626
     23 H          17.2534   76.3020   -8.5657 H       1  UNL1        0.1734
     24 O          21.4638   72.1550   -3.7778 O.3     1  UNL1       -0.2703
     25 P          21.6500   70.7193   -3.0584 P.3     1  UNL1        0.2208
     26 O          23.2257   70.4069   -3.2586 O.co2   1  UNL1       -0.4371
     27 O          20.7362   69.6472   -3.5777 O.2     1  UNL1       -0.5170
     28 O          21.4930   71.0275   -1.4827 O.3     1  UNL1       -0.2858
     29 O          23.1487   72.5763   -0.7977 O.3     1  UNL1       -0.3226
     30 O          21.2614   71.7268    2.7778 O.3     1  UNL1       -0.3794
     31 O          21.8540   69.5929    0.8726 O.3     1  UNL1       -0.3775
     32 O          20.7527   74.2476    1.4222 O.3     1  UNL1       -0.3792
     33 C          21.3540   71.9152    1.3658 C.3     1  UNL1        0.1718
     34 C          22.3575   70.9206    0.7816 C.3     1  UNL1        0.1968
     35 C          21.8172   73.3511    1.1096 C.3     1  UNL1        0.1723
     36 C          22.6554   71.2409   -0.6839 C.3     1  UNL1        0.2706
     37 C          22.2152   73.5562   -0.3491 C.3     1  UNL1        0.1830
     38 H          20.9687   70.8209    2.9648 H       1  UNL1        0.2105
     39 H          21.6626   69.3830    1.7998 H       1  UNL1        0.2106
     40 H          20.4898   74.1271    2.3481 H       1  UNL1        0.2106
     41 O          22.2217   75.8877   -0.0931 O.co2   1  UNL1       -0.5466
     42 O          24.0947   74.9331   -0.9759 O.co2   1  UNL1       -0.5466
     43 C          22.9655   74.8370   -0.5192 C.2     1  UNL1        0.0799
@<TRIPOS>UNITY_ATOM_ATTR
2 1
charge -1
26 1
charge -1
41 1
charge -1
@<TRIPOS>BOND
     1     1     4    1
     2     1    24    1
     3     1     2    1
     4     1     3    2
     5    25    28    1
     6    25    24    1
     7    25    26    1
     8    25    27    2
     9     6    11    1
    10     6    12    1
    11    29    36    1
    12    29    37    1
    13     7     9    1
    14     7    13    1
    15     8    10    1
    16     8    14    1
    17     4     5    1
    18    28    36    1
    19    30    33    1
    20    30    38    1
    21    31    34    1
    22    31    39    1
    23    32    35    1
    24    32    40    1
    25    41    43   ar
    26    15    19    2
    27    42    43   ar
    28    16    22    2
    29    17    12    1
    30    17    19   ar
    31    17    20   ar
    32    18    19   ar
    33    18    22   ar
    34    18    23    1
    35     9    10    1
    36     9    11    1
    37    10    12    1
    38    11     5    1
    39    33    34    1
    40    33    35    1
    41    34    36    1
    42    35    37    1
    43    37    43    1
    44    20    21   ar
    45    21    22   ar
@<TRIPOS>MOLECULE
*****
 43 45 0 0 0
SMALL
GASTEIGER

@<TRIPOS>ATOM
      1 P          18.5537   70.2104   -3.3025 P.3     1  UNL1        0.2189
      2 O          17.3133   70.9182   -2.5414 O.co2   1  UNL1       -0.4371
      3 O          19.3937   69.3108   -2.4439 O.2     1  UNL1       -0.5170
      4 O          19.3340   71.4426   -4.0029 O.3     1  UNL1       -0.3112
      5 C          19.6496   72.5772   -3.2170 C.3     1  UNL1        0.1811
      6 O          21.6928   73.5234   -2.3758 O.3     1  UNL1       -0.3308
      7 O          22.9630   72.5715   -4.9198 O.3     1  UNL1       -0.3794
      8 O          23.7383   70.6747   -3.1206 O.3     1  UNL1       -0.3779
      9 C          21.9396   71.9577   -4.1360 C.3     1  UNL1        0.1713
     10 C          22.5304   71.3641   -2.8747 C.3     1  UNL1        0.1895
     11 C          21.0475   73.0601   -3.5817 C.3     1  UNL1        0.1764
     12 C          22.7264   72.5962   -2.0080 C.3     1  UNL1        0.2383
     13 H          23.5458   71.8868   -5.2847 H       1  UNL1        0.2105
     14 H          23.5604   69.8988   -3.6759 H       1  UNL1        0.2106
     15 O          22.2389   70.0237   -0.9492 O.2     1  UNL1       -0.2464
     16 O          22.3170   71.5927    3.3839 O.2     1  UNL1       -0.2670
     17 N          22.6147   72.3041   -0.6069 N.ar    1  UNL1       -0.2551
     18 N          22.2773   70.8078    1.2079 N.ar    1  UNL1       -0.2743
     19 C          22.3684   70.9778   -0.1799 C.ar    1  UNL1        0.3323
     20 C          22.7503   73.3239    0.3272 C.ar    1  UNL1        0.0869
     21 C          22.6610   73.1464    1.6468 C.ar    1  UNL1        0.0795
     22 C          22.4044   71.7909    2.1759 C.ar    1  UNL1        0.2626
     23 H          22.1041   69.8934    1.5291 H       1  UNL1        0.1734
     24 O          17.8404   69.4745   -4.5524 O.3     1  UNL1       -0.2703
     25 P          17.0858   70.0769   -5.8491 P.3     1  UNL1        0.2208
     26 O          16.4213   71.4426   -5.2890 O.co2   1  UNL1       -0.4371
     27 O          16.1105   69.1316   -6.4886 O.2     1  UNL1       -0.5170
     28 O          18.2744   70.5715   -6.8213 O.3     1  UNL1       -0.2858
     29 O          17.1457   71.5844   -8.6404 O.3     1  UNL1       -0.3226
     30 O          21.0928   72.4197   -9.5298 O.3     1  UNL1       -0.3794
     31 O          20.3264   69.7852   -8.5263 O.3     1  UNL1       -0.3775
     32 O          19.3635   74.5023   -8.4700 O.3     1  UNL1       -0.3792
     33 C          19.9709   72.1803   -8.6800 C.3     1  UNL1        0.1718
     34 C          19.4092   70.7851   -8.9549 C.3     1  UNL1        0.1968
     35 C          18.9154   73.2473   -8.9785 C.3     1  UNL1        0.1723
     36 C          18.0762   70.5802   -8.2339 C.3     1  UNL1        0.2706
     37 C          17.5785   72.9062   -8.3266 C.3     1  UNL1        0.1830
     38 H          21.7768   71.7535   -9.3579 H       1  UNL1        0.2105
     39 H          21.1746   69.9094   -8.9797 H       1  UNL1        0.2106
     40 H          20.2138   74.7311   -8.8769 H       1  UNL1        0.2106
     41 O          16.9876   74.6928   -9.7267 O.co2   1  UNL1       -0.5466
     42 O          15.2974   73.6354   -8.6201 O.co2   1  UNL1       -0.5466
     43 C          16.4844   73.7583   -8.8825 C.2     1  UNL1        0.0799
@<TRIPOS>UNITY_ATOM_ATTR
2 1
charge -1
26 1
charge -1
41 1
charge -1
@<TRIPOS>BOND
     1     1     4    1
     2     1    24    1
     3     1     2    1
     4     1     3    2
     5    25    28    1
     6    25    24    1
     7    25    26    1
     8    25    27    2
     9     6    11    1
    10     6    12    1
    11    29    36    1
    12    29    37    1
    13     7     9    1
    14     7    13    1
    15     8    10    1
    16     8    14    1
    17     4     5    1
    18    28    36    1
    19    30    33    1
    20    30    38    1
    21    31    34    1
    22    31    39    1
    23    32    35    1
    24    32    40    1
    25    41    43   ar
    26    15    19    2
    27    42    43   ar
    28    16    22    2
    29    17    12    1
    30    17    19   ar
    31    17    20   ar
    32    18    19   ar
    33    18    22   ar
    34    18    23    1
    35     9    10    1
    36     9    11    1
    37    10    12    1
    38    11     5    1
    39    33    34    1
    40    33    35    1
    41    34    36    1
    42    35    37    1
    43    37    43    1
    44    20    21   ar
    45    21    22   ar
