@<TRIPOS>MOLECULE
*****
 43 45 0 0 0
SMALL
GASTEIGER

@<TRIPOS>ATOM
      1 P          22.9492   71.6492   -2.7697 P.3     1  UNL1        0.2189
      2 O          23.7789   72.9643   -3.2180 O.co2   1  UNL1       -0.4371
      3 O          23.5170   70.3468   -3.2526 O.2     1  UNL1       -0.5170
      4 O          21.4327   71.9697   -3.2339 O.3     1  UNL1       -0.3112
      5 C          20.5647   70.8843   -3.5044 C.3     1  UNL1        0.1811
      6 O          18.7327   71.9517   -4.6367 O.3     1  UNL1       -0.3308
      7 O          16.9775   70.7834   -2.5046 O.3     1  UNL1       -0.3794
      8 O          16.5754   69.0883   -4.6025 O.3     1  UNL1       -0.3779
      9 C          18.1362   70.2272   -3.1263 C.3     1  UNL1        0.1713
     10 C          17.8090   69.7723   -4.5328 C.3     1  UNL1        0.1895
     11 C          19.1228   71.3591   -3.3789 C.3     1  UNL1        0.1764
     12 C          17.7923   71.0872   -5.2937 C.3     1  UNL1        0.2383
     13 H          16.3325   70.0789   -2.3333 H       1  UNL1        0.2105
     14 H          16.6374   68.2583   -4.1032 H       1  UNL1        0.2106
     15 O          16.0275   70.3776   -7.3814 O.2     1  UNL1       -0.2464
     16 O          19.3972   70.5160  -10.5230 O.2     1  UNL1       -0.2670
     17 N          18.1819   70.9309   -6.6665 N.ar    1  UNL1       -0.2551
     18 N          17.7077   70.4462   -8.9439 N.ar    1  UNL1       -0.2743
     19 C          17.2173   70.5719   -7.6375 C.ar    1  UNL1        0.3323
     20 C          19.5050   71.1340   -7.0395 C.ar    1  UNL1        0.0869
     21 C          19.9574   71.0106   -8.2888 C.ar    1  UNL1        0.0795
     22 C          19.0143   70.6374   -9.3633 C.ar    1  UNL1        0.2626
     23 H          17.0552   70.1950   -9.6370 H       1  UNL1        0.1734
     24 O          22.8759   71.7970   -1.1618 O.3     1  UNL1       -0.2703
     25 P          22.4616   70.7343   -0.0160 P.3     1  UNL1        0.2208
     26 O          23.7098   69.7039    0.0016 O.co2   1  UNL1       -0.4371
     27 O          21.1259   70.0841   -0.2332 O.2     1  UNL1       -0.5170
     28 O          22.5903   71.5535    1.3678 O.3     1  UNL1       -0.2858
     29 O          21.6403   72.3454    3.3876 O.3     1  UNL1       -0.3226
     30 O          21.2952   75.6566    0.9413 O.3     1  UNL1       -0.3794
     31 O          20.7028   72.9873   -0.0874 O.3     1  UNL1       -0.3775
     32 O          23.3483   75.5691    2.9975 O.3     1  UNL1       -0.3792
     33 C          21.8915   74.4567    1.4337 C.3     1  UNL1        0.1718
     34 C          20.9057   73.2974    1.2864 C.3     1  UNL1        0.1968
     35 C          22.2421   74.6732    2.9076 C.3     1  UNL1        0.1723
     36 C          21.4164   72.0498    2.0085 C.3     1  UNL1        0.2706
     37 C          22.6205   73.3611    3.5887 C.3     1  UNL1        0.1830
     38 H          21.0638   75.5427    0.0060 H       1  UNL1        0.2105
     39 H          20.3790   73.7746   -0.5518 H       1  UNL1        0.2106
     40 H          23.1205   76.4082    2.5675 H       1  UNL1        0.2106
     41 O          23.7897   74.1126    5.4781 O.co2   1  UNL1       -0.5466
     42 O          21.7428   73.1709    5.8281 O.co2   1  UNL1       -0.5466
     43 C          22.6385   73.5206    5.0742 C.2     1  UNL1        0.0799
@<TRIPOS>UNITY_ATOM_ATTR
2 1
charge -1
26 1
charge -1
41 1
charge -1
@<TRIPOS>BOND
     1     1     4    1
     2     1    24    1
     3     1     2    1
     4     1     3    2
     5    25    28    1
     6    25    24    1
     7    25    26    1
     8    25    27    2
     9     6    11    1
    10     6    12    1
    11    29    36    1
    12    29    37    1
    13     7     9    1
    14     7    13    1
    15     8    10    1
    16     8    14    1
    17     4     5    1
    18    28    36    1
    19    30    33    1
    20    30    38    1
    21    31    34    1
    22    31    39    1
    23    32    35    1
    24    32    40    1
    25    41    43   ar
    26    15    19    2
    27    42    43   ar
    28    16    22    2
    29    17    12    1
    30    17    19   ar
    31    17    20   ar
    32    18    19   ar
    33    18    22   ar
    34    18    23    1
    35     9    10    1
    36     9    11    1
    37    10    12    1
    38    11     5    1
    39    33    34    1
    40    33    35    1
    41    34    36    1
    42    35    37    1
    43    37    43    1
    44    20    21   ar
    45    21    22   ar
@<TRIPOS>MOLECULE
*****
 43 45 0 0 0
SMALL
GASTEIGER

@<TRIPOS>ATOM
      1 P          21.7608   73.8794   -5.5880 P.3     1  UNL1        0.2189
      2 O          21.1226   74.7798   -4.4044 O.co2   1  UNL1       -0.4371
      3 O          22.8666   74.5384   -6.3593 O.2     1  UNL1       -0.5170
      4 O          20.4778   73.4147   -6.4575 O.3     1  UNL1       -0.3112
      5 C          20.1209   74.1766   -7.5962 C.3     1  UNL1        0.1811
      6 O          19.6993   71.8844   -8.1842 O.3     1  UNL1       -0.3308
      7 O          18.0269   72.9618  -10.4277 O.3     1  UNL1       -0.3794
      8 O          16.1552   72.2618   -8.5723 O.3     1  UNL1       -0.3779
      9 C          18.1979   73.4688   -9.1040 C.3     1  UNL1        0.1713
     10 C          17.4445   72.6084   -8.1118 C.3     1  UNL1        0.1895
     11 C          19.6454   73.2342   -8.6945 C.3     1  UNL1        0.1764
     12 C          18.3612   71.4042   -7.9788 C.3     1  UNL1        0.2383
     13 H          17.1093   73.1004  -10.7114 H       1  UNL1        0.2105
     14 H          15.6101   73.0620   -8.6399 H       1  UNL1        0.2106
     15 O          16.0766   70.0728   -6.9866 O.2     1  UNL1       -0.2464
     16 O          18.1560   69.0965   -2.9908 O.2     1  UNL1       -0.2670
     17 N          18.2782   70.7930   -6.6825 N.ar    1  UNL1       -0.2551
     18 N          17.1141   69.5887   -4.9970 N.ar    1  UNL1       -0.2743
     19 C          17.0839   70.1493   -6.2807 C.ar    1  UNL1        0.3323
     20 C          19.3714   70.8330   -5.8256 C.ar    1  UNL1        0.0869
     21 C          19.3852   70.2940   -4.6049 C.ar    1  UNL1        0.0795
     22 C          18.1768   69.6036   -4.1083 C.ar    1  UNL1        0.2626
     23 H          16.2933   69.1369   -4.6944 H       1  UNL1        0.1734
     24 O          22.1905   72.5231   -4.8208 O.3     1  UNL1       -0.2703
     25 P          23.1184   72.2891   -3.5178 P.3     1  UNL1        0.2208
     26 O          24.3354   73.3335   -3.7380 O.co2   1  UNL1       -0.4371
     27 O          23.5531   70.8660   -3.3189 O.2     1  UNL1       -0.5170
     28 O          22.2683   72.9067   -2.2937 O.3     1  UNL1       -0.2858
     29 O          21.5377   71.0957   -0.9537 O.3     1  UNL1       -0.3226
     30 O          19.9836   74.3333    1.0887 O.3     1  UNL1       -0.3794
     31 O          19.8647   74.2267   -1.8284 O.3     1  UNL1       -0.3775
     32 O          22.3349   72.9587    2.1050 O.3     1  UNL1       -0.3792
     33 C          20.9258   73.6375    0.2724 C.3     1  UNL1        0.1718
     34 C          20.2324   73.1343   -0.9940 C.3     1  UNL1        0.1968
     35 C          21.4747   72.4606    1.0821 C.3     1  UNL1        0.1723
     36 C          21.1455   72.1925   -1.7801 C.3     1  UNL1        0.2706
     37 C          22.2692   71.5008    0.2012 C.3     1  UNL1        0.1830
     38 H          19.6213   75.0857    0.5949 H       1  UNL1        0.2105
     39 H          19.2855   74.8286   -1.3358 H       1  UNL1        0.2106
     40 H          21.8414   73.5711    2.6727 H       1  UNL1        0.2106
     41 O          21.7682   69.2158    0.3721 O.co2   1  UNL1       -0.5466
     42 O          23.2862   70.0611    1.8487 O.co2   1  UNL1       -0.5466
     43 C          22.5163   70.2099    0.9117 C.2     1  UNL1        0.0799
@<TRIPOS>UNITY_ATOM_ATTR
2 1
charge -1
26 1
charge -1
41 1
charge -1
@<TRIPOS>BOND
     1     1     4    1
     2     1    24    1
     3     1     2    1
     4     1     3    2
     5    25    28    1
     6    25    24    1
     7    25    26    1
     8    25    27    2
     9     6    11    1
    10     6    12    1
    11    29    36    1
    12    29    37    1
    13     7     9    1
    14     7    13    1
    15     8    10    1
    16     8    14    1
    17     4     5    1
    18    28    36    1
    19    30    33    1
    20    30    38    1
    21    31    34    1
    22    31    39    1
    23    32    35    1
    24    32    40    1
    25    41    43   ar
    26    15    19    2
    27    42    43   ar
    28    16    22    2
    29    17    12    1
    30    17    19   ar
    31    17    20   ar
    32    18    19   ar
    33    18    22   ar
    34    18    23    1
    35     9    10    1
    36     9    11    1
    37    10    12    1
    38    11     5    1
    39    33    34    1
    40    33    35    1
    41    34    36    1
    42    35    37    1
    43    37    43    1
    44    20    21   ar
    45    21    22   ar
@<TRIPOS>MOLECULE
*****
 43 45 0 0 0
SMALL
GASTEIGER

@<TRIPOS>ATOM
      1 P          22.8313   71.7105   -2.2663 P.3     1  UNL1        0.2189
      2 O          23.4480   73.2012   -2.3941 O.co2   1  UNL1       -0.4371
      3 O          23.4143   70.7006   -3.2108 O.2     1  UNL1       -0.5170
      4 O          21.2338   71.9399   -2.3812 O.3     1  UNL1       -0.3112
      5 C          20.5499   71.3895   -3.4921 C.3     1  UNL1        0.1811
      6 O          18.6118   72.2057   -4.6562 O.3     1  UNL1       -0.3308
      7 O          16.9974   70.9705   -2.4518 O.3     1  UNL1       -0.3794
      8 O          16.7613   69.1412   -4.4602 O.3     1  UNL1       -0.3779
      9 C          18.2040   70.5061   -3.0575 C.3     1  UNL1        0.1713
     10 C          17.9181   69.9509   -4.4367 C.3     1  UNL1        0.1895
     11 C          19.0674   71.7194   -3.3751 C.3     1  UNL1        0.1764
     12 C          17.7621   71.2177   -5.2606 C.3     1  UNL1        0.2383
     13 H          16.4293   70.2129   -2.2397 H       1  UNL1        0.2105
     14 H          16.9110   68.3477   -3.9217 H       1  UNL1        0.2106
     15 O          16.0358   70.3442   -7.3181 O.2     1  UNL1       -0.2464
     16 O          19.3918   70.5498  -10.4707 O.2     1  UNL1       -0.2670
     17 N          18.1585   71.0344   -6.6281 N.ar    1  UNL1       -0.2551
     18 N          17.7092   70.4464   -8.8861 N.ar    1  UNL1       -0.2743
     19 C          17.2136   70.5916   -7.5836 C.ar    1  UNL1        0.3323
     20 C          19.4689   71.2936   -7.0110 C.ar    1  UNL1        0.0869
     21 C          19.9265   71.1507   -8.2564 C.ar    1  UNL1        0.0795
     22 C          19.0037   70.6912   -9.3150 C.ar    1  UNL1        0.2626
     23 H          17.0703   70.1373   -9.5685 H       1  UNL1        0.1734
     24 O          23.0372   71.3656   -0.7006 O.3     1  UNL1       -0.2703
     25 P          22.0940   70.5700    0.3440 P.3     1  UNL1        0.2208
     26 O          23.1551   69.9202    1.3795 O.co2   1  UNL1       -0.4371
     27 O          21.1672   69.5773   -0.2960 O.2     1  UNL1       -0.5170
     28 O          21.3547   71.7268    1.1910 O.3     1  UNL1       -0.2858
     29 O          21.8801   74.0356    1.2398 O.3     1  UNL1       -0.3226
     30 O          20.2339   73.4689    4.9863 O.3     1  UNL1       -0.3794
     31 O          22.0797   71.5007    3.8667 O.3     1  UNL1       -0.3775
     32 O          18.6960   74.7869    2.9009 O.3     1  UNL1       -0.3792
     33 C          20.4045   73.2334    3.5887 C.3     1  UNL1        0.1718
     34 C          21.8423   72.7911    3.3160 C.3     1  UNL1        0.1968
     35 C          20.0995   74.5378    2.8487 C.3     1  UNL1        0.1723
     36 C          22.1271   72.7516    1.8139 C.3     1  UNL1        0.2706
     37 C          20.5272   74.4615    1.3859 C.3     1  UNL1        0.1830
     38 H          20.4224   72.6535    5.4771 H       1  UNL1        0.2105
     39 H          21.9007   71.5184    4.8196 H       1  UNL1        0.2106
     40 H          18.4109   74.8376    3.8266 H       1  UNL1        0.2106
     41 O          20.3701   75.7319   -0.5796 O.co2   1  UNL1       -0.5466
     42 O          20.6660   76.8702    1.3738 O.co2   1  UNL1       -0.5466
     43 C          20.5340   75.8198    0.7637 C.2     1  UNL1        0.0799
@<TRIPOS>UNITY_ATOM_ATTR
2 1
charge -1
26 1
charge -1
41 1
charge -1
@<TRIPOS>BOND
     1     1     4    1
     2     1    24    1
     3     1     2    1
     4     1     3    2
     5    25    28    1
     6    25    24    1
     7    25    26    1
     8    25    27    2
     9     6    11    1
    10     6    12    1
    11    29    36    1
    12    29    37    1
    13     7     9    1
    14     7    13    1
    15     8    10    1
    16     8    14    1
    17     4     5    1
    18    28    36    1
    19    30    33    1
    20    30    38    1
    21    31    34    1
    22    31    39    1
    23    32    35    1
    24    32    40    1
    25    41    43   ar
    26    15    19    2
    27    42    43   ar
    28    16    22    2
    29    17    12    1
    30    17    19   ar
    31    17    20   ar
    32    18    19   ar
    33    18    22   ar
    34    18    23    1
    35     9    10    1
    36     9    11    1
    37    10    12    1
    38    11     5    1
    39    33    34    1
    40    33    35    1
    41    34    36    1
    42    35    37    1
    43    37    43    1
    44    20    21   ar
    45    21    22   ar
@<TRIPOS>MOLECULE
*****
 43 45 0 0 0
SMALL
GASTEIGER

@<TRIPOS>ATOM
      1 P          22.9264   71.9885   -3.0073 P.3     1  UNL1        0.2189
      2 O          23.5541   70.5045   -3.1581 O.co2   1  UNL1       -0.4371
      3 O          22.8338   72.4971   -1.5986 O.2     1  UNL1       -0.5170
      4 O          21.5280   71.9028   -3.8167 O.3     1  UNL1       -0.3112
      5 C          20.6763   70.7969   -3.5799 C.3     1  UNL1        0.1811
      6 O          18.8373   71.8996   -4.6659 O.3     1  UNL1       -0.3308
      7 O          17.1128   70.7582   -2.4945 O.3     1  UNL1       -0.3794
      8 O          16.6301   69.0754   -4.5852 O.3     1  UNL1       -0.3779
      9 C          18.2461   70.1827   -3.1449 C.3     1  UNL1        0.1713
     10 C          17.8771   69.7370   -4.5440 C.3     1  UNL1        0.1895
     11 C          19.2466   71.2972   -3.4190 C.3     1  UNL1        0.1764
     12 C          17.8659   71.0537   -5.3017 C.3     1  UNL1        0.2383
     13 H          16.4595   70.0651   -2.3091 H       1  UNL1        0.2105
     14 H          16.6890   68.2433   -4.0892 H       1  UNL1        0.2106
     15 O          16.0286   70.4417   -7.3575 O.2     1  UNL1       -0.2464
     16 O          19.3351   70.4626  -10.5686 O.2     1  UNL1       -0.2670
     17 N          18.2196   70.8936   -6.6838 N.ar    1  UNL1       -0.2551
     18 N          17.6773   70.4517   -8.9547 N.ar    1  UNL1       -0.2743
     19 C          17.2202   70.5863   -7.6371 C.ar    1  UNL1        0.3323
     20 C          19.5423   71.0423   -7.0830 C.ar    1  UNL1        0.0869
     21 C          19.9628   70.9111   -8.3426 C.ar    1  UNL1        0.0795
     22 C          18.9820   70.5896   -9.4000 C.ar    1  UNL1        0.2626
     23 H          17.0001   70.2358   -9.6359 H       1  UNL1        0.1734
     24 O          23.8579   72.8775   -3.9844 O.3     1  UNL1       -0.2703
     25 P          24.2485   74.4457   -3.9410 P.3     1  UNL1        0.2208
     26 O          23.8666   74.8803   -2.4292 O.co2   1  UNL1       -0.4371
     27 O          23.5913   75.2737   -5.0071 O.2     1  UNL1       -0.5170
     28 O          25.8612   74.4670   -3.9758 O.3     1  UNL1       -0.2858
     29 O          27.4537   75.7112   -2.7410 O.3     1  UNL1       -0.3226
     30 O          29.2754   75.4502   -6.4398 O.3     1  UNL1       -0.3794
     31 O          26.4124   75.9941   -6.2342 O.3     1  UNL1       -0.3775
     32 O          30.2011   73.7941   -4.2373 O.3     1  UNL1       -0.3792
     33 C          28.4515   75.0127   -5.3592 C.3     1  UNL1        0.1718
     34 C          27.3203   76.0175   -5.1388 C.3     1  UNL1        0.1968
     35 C          29.3264   74.9133   -4.1076 C.3     1  UNL1        0.1723
     36 C          26.5557   75.7067   -3.8514 C.3     1  UNL1        0.2706
     37 C          28.4815   74.7289   -2.8504 C.3     1  UNL1        0.1830
     38 H          28.7407   75.5209   -7.2463 H       1  UNL1        0.2105
     39 H          26.8910   76.1902   -7.0545 H       1  UNL1        0.2106
     40 H          30.7445   73.8989   -5.0339 H       1  UNL1        0.2106
     41 O          28.5245   75.4246   -0.6109 O.co2   1  UNL1       -0.5466
     42 O          30.5021   74.7621   -1.5324 O.co2   1  UNL1       -0.5466
     43 C          29.3000   74.9615   -1.6223 C.2     1  UNL1        0.0799
@<TRIPOS>UNITY_ATOM_ATTR
2 1
charge -1
26 1
charge -1
41 1
charge -1
@<TRIPOS>BOND
     1     1     4    1
     2     1    24    1
     3     1     2    1
     4     1     3    2
     5    25    28    1
     6    25    24    1
     7    25    26    1
     8    25    27    2
     9     6    11    1
    10     6    12    1
    11    29    36    1
    12    29    37    1
    13     7     9    1
    14     7    13    1
    15     8    10    1
    16     8    14    1
    17     4     5    1
    18    28    36    1
    19    30    33    1
    20    30    38    1
    21    31    34    1
    22    31    39    1
    23    32    35    1
    24    32    40    1
    25    41    43   ar
    26    15    19    2
    27    42    43   ar
    28    16    22    2
    29    17    12    1
    30    17    19   ar
    31    17    20   ar
    32    18    19   ar
    33    18    22   ar
    34    18    23    1
    35     9    10    1
    36     9    11    1
    37    10    12    1
    38    11     5    1
    39    33    34    1
    40    33    35    1
    41    34    36    1
    42    35    37    1
    43    37    43    1
    44    20    21   ar
    45    21    22   ar
@<TRIPOS>MOLECULE
*****
 43 45 0 0 0
SMALL
GASTEIGER

@<TRIPOS>ATOM
      1 P          22.8101   72.7756   -3.9310 P.3     1  UNL1        0.2189
      2 O          23.0758   73.2893   -5.4424 O.co2   1  UNL1       -0.4371
      3 O          23.4851   71.4841   -3.5729 O.2     1  UNL1       -0.5170
      4 O          21.1979   72.7872   -3.7944 O.3     1  UNL1       -0.3112
      5 C          20.5312   71.5623   -3.5499 C.3     1  UNL1        0.1811
      6 O          18.5494   72.2790   -4.7060 O.3     1  UNL1       -0.3308
      7 O          17.0094   70.9984   -2.4745 O.3     1  UNL1       -0.3794
      8 O          16.8381   69.1381   -4.4610 O.3     1  UNL1       -0.3779
      9 C          18.2304   70.5810   -3.0856 C.3     1  UNL1        0.1713
     10 C          17.9582   69.9984   -4.4562 C.3     1  UNL1        0.1895
     11 C          19.0366   71.8276   -3.4237 C.3     1  UNL1        0.1764
     12 C          17.7394   71.2478   -5.2923 C.3     1  UNL1        0.2383
     13 H          16.4771   70.2188   -2.2494 H       1  UNL1        0.2105
     14 H          17.0272   68.3581   -3.9153 H       1  UNL1        0.2106
     15 O          16.0141   70.3551   -7.3423 O.2     1  UNL1       -0.2464
     16 O          19.3559   70.5904  -10.5079 O.2     1  UNL1       -0.2670
     17 N          18.1325   71.0669   -6.6611 N.ar    1  UNL1       -0.2551
     18 N          17.6804   70.4722   -8.9168 N.ar    1  UNL1       -0.2743
     19 C          17.1883   70.6139   -7.6126 C.ar    1  UNL1        0.3323
     20 C          19.4388   71.3387   -7.0493 C.ar    1  UNL1        0.0869
     21 C          19.8930   71.1989   -8.2963 C.ar    1  UNL1        0.0795
     22 C          18.9707   70.7293   -9.3509 C.ar    1  UNL1        0.2626
     23 H          17.0420   70.1561   -9.5964 H       1  UNL1        0.1734
     24 O          23.2599   74.0421   -3.0329 O.3     1  UNL1       -0.2703
     25 P          22.4022   75.0226   -2.0755 P.3     1  UNL1        0.2208
     26 O          20.9156   74.9539   -2.7125 O.co2   1  UNL1       -0.4371
     27 O          22.9607   76.4111   -1.9573 O.2     1  UNL1       -0.5170
     28 O          22.2830   74.2275   -0.6769 O.3     1  UNL1       -0.2858
     29 O          21.4130   72.0423   -0.3993 O.3     1  UNL1       -0.3226
     30 O          20.7492   73.6914    3.3300 O.3     1  UNL1       -0.3794
     31 O          20.2397   75.2476    0.9107 O.3     1  UNL1       -0.3775
     32 O          22.9217   71.8002    2.9365 O.3     1  UNL1       -0.3792
     33 C          21.4364   73.4997    2.0934 C.3     1  UNL1        0.1718
     34 C          20.5064   73.8500    0.9316 C.3     1  UNL1        0.1968
     35 C          21.8612   72.0318    2.0111 C.3     1  UNL1        0.1723
     36 C          21.1243   73.4409   -0.4062 C.3     1  UNL1        0.2706
     37 C          22.3481   71.6704    0.6108 C.3     1  UNL1        0.1830
     38 H          20.4695   74.6174    3.4045 H       1  UNL1        0.2105
     39 H          19.8478   75.5142    1.7567 H       1  UNL1        0.2106
     40 H          22.6248   72.0265    3.8317 H       1  UNL1        0.2106
     41 O          23.7196   69.8199    0.1681 O.co2   1  UNL1       -0.5466
     42 O          21.5107   69.4084    0.5556 O.co2   1  UNL1       -0.5466
     43 C          22.4451   70.1883    0.4490 C.2     1  UNL1        0.0799
@<TRIPOS>UNITY_ATOM_ATTR
2 1
charge -1
26 1
charge -1
41 1
charge -1
@<TRIPOS>BOND
     1     1     4    1
     2     1    24    1
     3     1     2    1
     4     1     3    2
     5    25    28    1
     6    25    24    1
     7    25    26    1
     8    25    27    2
     9     6    11    1
    10     6    12    1
    11    29    36    1
    12    29    37    1
    13     7     9    1
    14     7    13    1
    15     8    10    1
    16     8    14    1
    17     4     5    1
    18    28    36    1
    19    30    33    1
    20    30    38    1
    21    31    34    1
    22    31    39    1
    23    32    35    1
    24    32    40    1
    25    41    43   ar
    26    15    19    2
    27    42    43   ar
    28    16    22    2
    29    17    12    1
    30    17    19   ar
    31    17    20   ar
    32    18    19   ar
    33    18    22   ar
    34    18    23    1
    35     9    10    1
    36     9    11    1
    37    10    12    1
    38    11     5    1
    39    33    34    1
    40    33    35    1
    41    34    36    1
    42    35    37    1
    43    37    43    1
    44    20    21   ar
    45    21    22   ar
@<TRIPOS>MOLECULE
*****
 43 45 0 0 0
SMALL
GASTEIGER

@<TRIPOS>ATOM
      1 P          21.6795   70.2890   -1.0454 P.3     1  UNL1        0.2189
      2 O          23.2136   70.5911   -1.4629 O.co2   1  UNL1       -0.4371
      3 O          21.5107   69.5056    0.2233 O.2     1  UNL1       -0.5170
      4 O          21.0397   69.6219   -2.3735 O.3     1  UNL1       -0.3112
      5 C          20.7570   70.4576   -3.4808 C.3     1  UNL1        0.1811
      6 O          19.0124   71.7342   -4.5315 O.3     1  UNL1       -0.3308
      7 O          17.1993   70.6653   -2.3957 O.3     1  UNL1       -0.3794
      8 O          16.5903   69.0908   -4.5372 O.3     1  UNL1       -0.3779
      9 C          18.2852   70.0229   -3.0640 C.3     1  UNL1        0.1713
     10 C          17.8853   69.6509   -4.4760 C.3     1  UNL1        0.1895
     11 C          19.3706   71.0634   -3.3039 C.3     1  UNL1        0.1764
     12 C          17.9790   70.9871   -5.1928 C.3     1  UNL1        0.2383
     13 H          16.4932   70.0202   -2.2315 H       1  UNL1        0.2105
     14 H          16.5827   68.2418   -4.0671 H       1  UNL1        0.2106
     15 O          16.1209   70.4290   -7.2452 O.2     1  UNL1       -0.2464
     16 O          19.4070   70.4531  -10.4770 O.2     1  UNL1       -0.2670
     17 N          18.3218   70.8424   -6.5793 N.ar    1  UNL1       -0.2551
     18 N          17.7595   70.4406   -8.8527 N.ar    1  UNL1       -0.2743
     19 C          17.3124   70.5620   -7.5304 C.ar    1  UNL1        0.3323
     20 C          19.6438   70.9795   -6.9848 C.ar    1  UNL1        0.0869
     21 C          20.0546   70.8611   -8.2489 C.ar    1  UNL1        0.0795
     22 C          19.0630   70.5678   -9.3045 C.ar    1  UNL1        0.2626
     23 H          17.0752   70.2434   -9.5326 H       1  UNL1        0.1734
     24 O          21.0133   71.7615   -1.0214 O.3     1  UNL1       -0.2703
     25 P          21.5109   73.1407   -0.3403 P.3     1  UNL1        0.2208
     26 O          22.2183   72.6432    1.0281 O.co2   1  UNL1       -0.4371
     27 O          20.4233   74.1562   -0.1404 O.2     1  UNL1       -0.5170
     28 O          22.7303   73.6400   -1.2709 O.3     1  UNL1       -0.2858
     29 O          22.2671   75.6443   -2.4446 O.3     1  UNL1       -0.3226
     30 O          25.8536   74.4880   -4.1381 O.3     1  UNL1       -0.3794
     31 O          23.7693   72.5151   -3.5928 O.3     1  UNL1       -0.3775
     32 O          25.7839   76.6643   -2.2120 O.3     1  UNL1       -0.3792
     33 C          24.8838   74.6125   -3.0980 C.3     1  UNL1        0.1718
     34 C          23.5863   73.9245   -3.5230 C.3     1  UNL1        0.1968
     35 C          24.6404   76.1036   -2.8543 C.3     1  UNL1        0.1723
     36 C          22.4564   74.2319   -2.5395 C.3     1  UNL1        0.2706
     37 C          23.4211   76.3310   -1.9653 C.3     1  UNL1        0.1830
     38 H          26.0244   73.5487   -4.3104 H       1  UNL1        0.2105
     39 H          24.4851   72.3128   -4.2149 H       1  UNL1        0.2106
     40 H          26.5670   76.5261   -2.7674 H       1  UNL1        0.2106
     41 O          21.6580   77.8625   -2.1837 O.co2   1  UNL1       -0.5466
     42 O          23.7491   78.7199   -1.8817 O.co2   1  UNL1       -0.5466
     43 C          22.9981   77.7635   -2.0015 C.2     1  UNL1        0.0799
@<TRIPOS>UNITY_ATOM_ATTR
2 1
charge -1
26 1
charge -1
41 1
charge -1
@<TRIPOS>BOND
     1     1     4    1
     2     1    24    1
     3     1     2    1
     4     1     3    2
     5    25    28    1
     6    25    24    1
     7    25    26    1
     8    25    27    2
     9     6    11    1
    10     6    12    1
    11    29    36    1
    12    29    37    1
    13     7     9    1
    14     7    13    1
    15     8    10    1
    16     8    14    1
    17     4     5    1
    18    28    36    1
    19    30    33    1
    20    30    38    1
    21    31    34    1
    22    31    39    1
    23    32    35    1
    24    32    40    1
    25    41    43   ar
    26    15    19    2
    27    42    43   ar
    28    16    22    2
    29    17    12    1
    30    17    19   ar
    31    17    20   ar
    32    18    19   ar
    33    18    22   ar
    34    18    23    1
    35     9    10    1
    36     9    11    1
    37    10    12    1
    38    11     5    1
    39    33    34    1
    40    33    35    1
    41    34    36    1
    42    35    37    1
    43    37    43    1
    44    20    21   ar
    45    21    22   ar
@<TRIPOS>MOLECULE
*****
 43 45 0 0 0
SMALL
GASTEIGER

@<TRIPOS>ATOM
      1 P          21.6267   70.3669   -1.0430 P.3     1  UNL1        0.2189
      2 O          23.1316   70.6480   -1.5674 O.co2   1  UNL1       -0.4371
      3 O          21.5364   69.5760    0.2291 O.2     1  UNL1       -0.5170
      4 O          20.8824   69.7210   -2.3263 O.3     1  UNL1       -0.3112
      5 C          20.6297   70.5472   -3.4480 C.3     1  UNL1        0.1811
      6 O          18.9076   71.8007   -4.5618 O.3     1  UNL1       -0.3308
      7 O          17.0486   70.7710   -2.4464 O.3     1  UNL1       -0.3794
      8 O          16.4888   69.1544   -4.5699 O.3     1  UNL1       -0.3779
      9 C          18.1497   70.1173   -3.0778 C.3     1  UNL1        0.1713
     10 C          17.7816   69.7173   -4.4909 C.3     1  UNL1        0.1895
     11 C          19.2392   71.1544   -3.3137 C.3     1  UNL1        0.1764
     12 C          17.8899   71.0395   -5.2312 C.3     1  UNL1        0.2383
     13 H          16.3396   70.1282   -2.2854 H       1  UNL1        0.2105
     14 H          16.4716   68.3146   -4.0836 H       1  UNL1        0.2106
     15 O          16.0841   70.4016   -7.3069 O.2     1  UNL1       -0.2464
     16 O          19.4352   70.4069  -10.4713 O.2     1  UNL1       -0.2670
     17 N          18.2636   70.8684   -6.6066 N.ar    1  UNL1       -0.2551
     18 N          17.7550   70.4038   -8.8808 N.ar    1  UNL1       -0.2743
     19 C          17.2789   70.5485   -7.5710 C.ar    1  UNL1        0.3323
     20 C          19.5912   71.0189   -6.9885 C.ar    1  UNL1        0.0869
     21 C          20.0298   70.8780   -8.2409 C.ar    1  UNL1        0.0795
     22 C          19.0653   70.5430   -9.3091 C.ar    1  UNL1        0.2626
     23 H          17.0883   70.1791   -9.5695 H       1  UNL1        0.1734
     24 O          20.9882   71.8496   -0.9607 O.3     1  UNL1       -0.2703
     25 P          21.5899   73.2337   -0.3812 P.3     1  UNL1        0.2208
     26 O          20.5855   74.3531   -0.9799 O.co2   1  UNL1       -0.4371
     27 O          23.0369   73.4618   -0.7102 O.2     1  UNL1       -0.5170
     28 O          21.2606   73.1939    1.1976 O.3     1  UNL1       -0.2858
     29 O          20.5433   75.1640    2.2991 O.3     1  UNL1       -0.3226
     30 O          21.6974   72.7947    5.4807 O.3     1  UNL1       -0.3794
     31 O          23.3145   72.9006    3.0500 O.3     1  UNL1       -0.3775
     32 O          18.8759   73.1778    4.8947 O.3     1  UNL1       -0.3792
     33 C          21.1742   73.0662    4.1805 C.3     1  UNL1        0.1718
     34 C          22.2343   73.7798    3.3411 C.3     1  UNL1        0.1968
     35 C          19.9384   73.9538    4.3438 C.3     1  UNL1        0.1723
     36 C          21.6398   74.2902    2.0277 C.3     1  UNL1        0.2706
     37 C          19.4816   74.5249    3.0045 C.3     1  UNL1        0.1830
     38 H          22.4838   72.2319    5.4020 H       1  UNL1        0.2105
     39 H          23.6963   72.5727    3.8789 H       1  UNL1        0.2106
     40 H          19.1538   72.8085    5.7475 H       1  UNL1        0.2106
     41 O          18.7722   76.6717    2.3804 O.co2   1  UNL1       -0.5466
     42 O          17.5731   75.6111    4.0041 O.co2   1  UNL1       -0.5466
     43 C          18.4992   75.6321    3.2072 C.2     1  UNL1        0.0799
@<TRIPOS>UNITY_ATOM_ATTR
2 1
charge -1
26 1
charge -1
41 1
charge -1
@<TRIPOS>BOND
     1     1     4    1
     2     1    24    1
     3     1     2    1
     4     1     3    2
     5    25    28    1
     6    25    24    1
     7    25    26    1
     8    25    27    2
     9     6    11    1
    10     6    12    1
    11    29    36    1
    12    29    37    1
    13     7     9    1
    14     7    13    1
    15     8    10    1
    16     8    14    1
    17     4     5    1
    18    28    36    1
    19    30    33    1
    20    30    38    1
    21    31    34    1
    22    31    39    1
    23    32    35    1
    24    32    40    1
    25    41    43   ar
    26    15    19    2
    27    42    43   ar
    28    16    22    2
    29    17    12    1
    30    17    19   ar
    31    17    20   ar
    32    18    19   ar
    33    18    22   ar
    34    18    23    1
    35     9    10    1
    36     9    11    1
    37    10    12    1
    38    11     5    1
    39    33    34    1
    40    33    35    1
    41    34    36    1
    42    35    37    1
    43    37    43    1
    44    20    21   ar
    45    21    22   ar
@<TRIPOS>MOLECULE
*****
 43 45 0 0 0
SMALL
GASTEIGER

@<TRIPOS>ATOM
      1 P          22.5640   72.8968   -4.3148 P.3     1  UNL1        0.2189
      2 O          22.8123   72.9295   -5.9136 O.co2   1  UNL1       -0.4371
      3 O          23.3498   71.8557   -3.5728 O.2     1  UNL1       -0.5170
      4 O          20.9553   72.7961   -4.1734 O.3     1  UNL1       -0.3112
      5 C          20.4080   71.7263   -3.4249 C.3     1  UNL1        0.1811
      6 O          18.4091   72.3669   -4.5960 O.3     1  UNL1       -0.3308
      7 O          16.9038   70.9775   -2.4062 O.3     1  UNL1       -0.3794
      8 O          16.8469   69.1444   -4.4242 O.3     1  UNL1       -0.3779
      9 C          18.1510   70.6289   -3.0073 C.3     1  UNL1        0.1713
     10 C          17.9244   70.0568   -4.3906 C.3     1  UNL1        0.1895
     11 C          18.9009   71.9179   -3.3146 C.3     1  UNL1        0.1764
     12 C          17.6568   71.3081   -5.2095 C.3     1  UNL1        0.2383
     13 H          16.4066   70.1699   -2.2008 H       1  UNL1        0.2105
     14 H          17.0662   68.3653   -3.8886 H       1  UNL1        0.2106
     15 O          16.0373   70.2662   -7.2755 O.2     1  UNL1       -0.2464
     16 O          19.3672   70.8203  -10.4138 O.2     1  UNL1       -0.2670
     17 N          18.0754   71.1688   -6.5756 N.ar    1  UNL1       -0.2551
     18 N          17.6976   70.5422   -8.8364 N.ar    1  UNL1       -0.2743
     19 C          17.1846   70.6335   -7.5358 C.ar    1  UNL1        0.3323
     20 C          19.3539   71.5616   -6.9528 C.ar    1  UNL1        0.0869
     21 C          19.8287   71.4686   -8.1964 C.ar    1  UNL1        0.0795
     22 C          18.9620   70.9191   -9.2596 C.ar    1  UNL1        0.2626
     23 H          17.0965   70.1706   -9.5219 H       1  UNL1        0.1734
     24 O          22.8735   74.4192   -3.8683 O.3     1  UNL1       -0.2703
     25 P          24.1793   75.3459   -4.0908 P.3     1  UNL1        0.2208
     26 O          25.4056   74.3435   -3.7566 O.co2   1  UNL1       -0.4371
     27 O          24.1796   76.6131   -3.2857 O.2     1  UNL1       -0.5170
     28 O          24.2573   75.5668   -5.6869 O.3     1  UNL1       -0.2858
     29 O          24.7416   77.1601   -7.3709 O.3     1  UNL1       -0.3226
     30 O          20.8465   76.1294   -8.2839 O.3     1  UNL1       -0.3794
     31 O          21.6578   76.5397   -5.5076 O.3     1  UNL1       -0.3775
     32 O          23.0419   75.1038   -9.8898 O.3     1  UNL1       -0.3792
     33 C          22.1707   75.9157   -7.7953 C.3     1  UNL1        0.1718
     34 C          22.4512   76.8766   -6.6397 C.3     1  UNL1        0.1968
     35 C          23.1462   76.1689   -8.9469 C.3     1  UNL1        0.1723
     36 C          23.9275   76.8385   -6.2425 C.3     1  UNL1        0.2706
     37 C          24.5873   76.2415   -8.4504 C.3     1  UNL1        0.1830
     38 H          20.2090   75.9743   -7.5692 H       1  UNL1        0.2105
     39 H          20.7198   76.5616   -5.7525 H       1  UNL1        0.2106
     40 H          22.1293   75.0467  -10.2135 H       1  UNL1        0.2106
     41 O          26.6590   77.2143   -8.9636 O.co2   1  UNL1       -0.5466
     42 O          25.2041   76.8940  -10.6899 O.co2   1  UNL1       -0.5466
     43 C          25.4833   76.8077   -9.5034 C.2     1  UNL1        0.0799
@<TRIPOS>UNITY_ATOM_ATTR
2 1
charge -1
26 1
charge -1
41 1
charge -1
@<TRIPOS>BOND
     1     1     4    1
     2     1    24    1
     3     1     2    1
     4     1     3    2
     5    25    28    1
     6    25    24    1
     7    25    26    1
     8    25    27    2
     9     6    11    1
    10     6    12    1
    11    29    36    1
    12    29    37    1
    13     7     9    1
    14     7    13    1
    15     8    10    1
    16     8    14    1
    17     4     5    1
    18    28    36    1
    19    30    33    1
    20    30    38    1
    21    31    34    1
    22    31    39    1
    23    32    35    1
    24    32    40    1
    25    41    43   ar
    26    15    19    2
    27    42    43   ar
    28    16    22    2
    29    17    12    1
    30    17    19   ar
    31    17    20   ar
    32    18    19   ar
    33    18    22   ar
    34    18    23    1
    35     9    10    1
    36     9    11    1
    37    10    12    1
    38    11     5    1
    39    33    34    1
    40    33    35    1
    41    34    36    1
    42    35    37    1
    43    37    43    1
    44    20    21   ar
    45    21    22   ar
@<TRIPOS>MOLECULE
*****
 43 45 0 0 0
SMALL
GASTEIGER

@<TRIPOS>ATOM
      1 P          22.5828   73.2020   -4.2478 P.3     1  UNL1        0.2189
      2 O          22.8456   73.9195   -5.6743 O.co2   1  UNL1       -0.4371
      3 O          23.3558   71.9355   -4.0236 O.2     1  UNL1       -0.5170
      4 O          20.9724   73.0648   -4.1727 O.3     1  UNL1       -0.3112
      5 C          20.4193   71.8815   -3.6265 C.3     1  UNL1        0.1811
      6 O          18.3850   72.4144   -4.7907 O.3     1  UNL1       -0.3308
      7 O          16.9515   71.1350   -2.4886 O.3     1  UNL1       -0.3794
      8 O          16.8876   69.1815   -4.3901 O.3     1  UNL1       -0.3779
      9 C          18.1924   70.7723   -3.0944 C.3     1  UNL1        0.1713
     10 C          17.9482   70.1130   -4.4352 C.3     1  UNL1        0.1895
     11 C          18.9115   72.0531   -3.4954 C.3     1  UNL1        0.1764
     12 C          17.6403   71.3071   -5.3225 C.3     1  UNL1        0.2383
     13 H          16.4739   70.3329   -2.2238 H       1  UNL1        0.2105
     14 H          17.1324   68.4405   -3.8131 H       1  UNL1        0.2106
     15 O          15.9780   70.1660   -7.3001 O.2     1  UNL1       -0.2464
     16 O          19.2531   70.5301  -10.5227 O.2     1  UNL1       -0.2670
     17 N          18.0333   71.0922   -6.6864 N.ar    1  UNL1       -0.2551
     18 N          17.6111   70.3475   -8.9030 N.ar    1  UNL1       -0.2743
     19 C          17.1223   70.5116   -7.6002 C.ar    1  UNL1        0.3323
     20 C          19.3067   71.4562   -7.1069 C.ar    1  UNL1        0.0869
     21 C          19.7583   71.2936   -8.3520 C.ar    1  UNL1        0.0795
     22 C          18.8695   70.6932   -9.3684 C.ar    1  UNL1        0.2626
     23 H          16.9957   69.9434   -9.5567 H       1  UNL1        0.1734
     24 O          22.8970   74.3796   -3.1859 O.3     1  UNL1       -0.2703
     25 P          22.0406   74.9346   -1.9321 P.3     1  UNL1        0.2208
     26 O          20.5640   75.1504   -2.5594 O.co2   1  UNL1       -0.4371
     27 O          22.6213   76.1572   -1.2826 O.2     1  UNL1       -0.5170
     28 O          21.8839   73.6648   -0.9494 O.3     1  UNL1       -0.2858
     29 O          23.2865   73.6760    0.9589 O.3     1  UNL1       -0.3226
     30 O          21.7953   69.8239    1.0342 O.3     1  UNL1       -0.3794
     31 O          22.6295   71.0399   -1.4877 O.3     1  UNL1       -0.3775
     32 O          20.7782   71.8188    2.8880 O.3     1  UNL1       -0.3792
     33 C          21.7679   71.2270    0.7725 C.3     1  UNL1        0.1718
     34 C          22.8903   71.5881   -0.2008 C.3     1  UNL1        0.1968
     35 C          21.9602   71.9599    2.1022 C.3     1  UNL1        0.1723
     36 C          23.0385   73.1051   -0.3264 C.3     1  UNL1        0.2706
     37 C          22.2272   73.4466    1.8853 C.3     1  UNL1        0.1830
     38 H          21.6750   69.3375    0.2034 H       1  UNL1        0.2105
     39 H          22.5340   70.0776   -1.4154 H       1  UNL1        0.2106
     40 H          20.5970   70.8771    3.0332 H       1  UNL1        0.2106
     41 O          22.1904   75.3142    3.3038 O.co2   1  UNL1       -0.5466
     42 O          23.5266   73.5705    3.9145 O.co2   1  UNL1       -0.5466
     43 C          22.7339   74.0828    3.1386 C.2     1  UNL1        0.0799
@<TRIPOS>UNITY_ATOM_ATTR
2 1
charge -1
26 1
charge -1
41 1
charge -1
@<TRIPOS>BOND
     1     1     4    1
     2     1    24    1
     3     1     2    1
     4     1     3    2
     5    25    28    1
     6    25    24    1
     7    25    26    1
     8    25    27    2
     9     6    11    1
    10     6    12    1
    11    29    36    1
    12    29    37    1
    13     7     9    1
    14     7    13    1
    15     8    10    1
    16     8    14    1
    17     4     5    1
    18    28    36    1
    19    30    33    1
    20    30    38    1
    21    31    34    1
    22    31    39    1
    23    32    35    1
    24    32    40    1
    25    41    43   ar
    26    15    19    2
    27    42    43   ar
    28    16    22    2
    29    17    12    1
    30    17    19   ar
    31    17    20   ar
    32    18    19   ar
    33    18    22   ar
    34    18    23    1
    35     9    10    1
    36     9    11    1
    37    10    12    1
    38    11     5    1
    39    33    34    1
    40    33    35    1
    41    34    36    1
    42    35    37    1
    43    37    43    1
    44    20    21   ar
    45    21    22   ar
@<TRIPOS>MOLECULE
*****
 43 45 0 0 0
SMALL
GASTEIGER

@<TRIPOS>ATOM
      1 P          22.0802   73.5174   -5.3282 P.3     1  UNL1        0.2189
      2 O          23.1797   72.4981   -4.7191 O.co2   1  UNL1       -0.4371
      3 O          20.9622   73.8758   -4.3936 O.2     1  UNL1       -0.5170
      4 O          21.6365   72.8234   -6.7209 O.3     1  UNL1       -0.3112
      5 C          20.7352   73.5164   -7.5646 C.3     1  UNL1        0.1811
      6 O          19.9983   71.2536   -7.9028 O.3     1  UNL1       -0.3308
      7 O          18.4852   72.2974  -10.2720 O.3     1  UNL1       -0.3794
      8 O          16.5396   72.0718   -8.3747 O.3     1  UNL1       -0.3779
      9 C          18.7285   72.9189   -9.0098 C.3     1  UNL1        0.1713
     10 C          17.8658   72.2856   -7.9388 C.3     1  UNL1        0.1895
     11 C          20.1307   72.5333   -8.5588 C.3     1  UNL1        0.1764
     12 C          18.6070   70.9886   -7.6629 C.3     1  UNL1        0.2383
     13 H          17.5949   72.5293  -10.5807 H       1  UNL1        0.2105
     14 H          16.1106   72.9272   -8.5365 H       1  UNL1        0.2106
     15 O          16.2894   69.7139   -6.6728 O.2     1  UNL1       -0.2464
     16 O          18.0910   69.3162   -2.4490 O.2     1  UNL1       -0.2670
     17 N          18.4437   70.5415   -6.3086 N.ar    1  UNL1       -0.2551
     18 N          17.1885   69.5179   -4.5698 N.ar    1  UNL1       -0.2743
     19 C          17.2395   69.9125   -5.9133 C.ar    1  UNL1        0.3323
     20 C          19.4690   70.7257   -5.3889 C.ar    1  UNL1        0.0869
     21 C          19.4058   70.3442   -4.1117 C.ar    1  UNL1        0.0795
     22 C          18.1818   69.6801   -3.6176 C.ar    1  UNL1        0.2626
     23 H          16.3592   69.0796   -4.2707 H       1  UNL1        0.1734
     24 O          22.9777   74.7701   -5.8162 O.3     1  UNL1       -0.2703
     25 P          23.5583   76.0407   -5.0025 P.3     1  UNL1        0.2208
     26 O          25.0542   75.5704   -4.6006 O.co2   1  UNL1       -0.4371
     27 O          22.7104   76.4666   -3.8390 O.2     1  UNL1       -0.5170
     28 O          23.7770   77.1796   -6.1239 O.3     1  UNL1       -0.2858
     29 O          25.0780   76.1440   -7.8103 O.3     1  UNL1       -0.3226
     30 O          24.3468   79.8549   -9.4725 O.3     1  UNL1       -0.3794
     31 O          25.0294   79.6083   -6.6427 O.3     1  UNL1       -0.3775
     32 O          22.8981   77.5199  -10.4213 O.3     1  UNL1       -0.3792
     33 C          24.0624   78.7048   -8.6761 C.3     1  UNL1        0.1718
     34 C          25.1316   78.5547   -7.5936 C.3     1  UNL1        0.1968
     35 C          24.0606   77.4815   -9.5956 C.3     1  UNL1        0.1723
     36 C          24.9926   77.2149   -6.8694 C.3     1  UNL1        0.2706
     37 C          24.0473   76.1826   -8.7948 C.3     1  UNL1        0.1830
     38 H          24.3532   80.6448   -8.9093 H       1  UNL1        0.2105
     39 H          25.1164   80.4614   -7.0955 H       1  UNL1        0.2106
     40 H          22.8943   78.3419  -10.9363 H       1  UNL1        0.2106
     41 O          25.6497   74.6039   -9.4593 O.co2   1  UNL1       -0.5466
     42 O          23.6063   74.4988  -10.4656 O.co2   1  UNL1       -0.5466
     43 C          24.3752   75.0167   -9.6696 C.2     1  UNL1        0.0799
@<TRIPOS>UNITY_ATOM_ATTR
2 1
charge -1
26 1
charge -1
41 1
charge -1
@<TRIPOS>BOND
     1     1     4    1
     2     1    24    1
     3     1     2    1
     4     1     3    2
     5    25    28    1
     6    25    24    1
     7    25    26    1
     8    25    27    2
     9     6    11    1
    10     6    12    1
    11    29    36    1
    12    29    37    1
    13     7     9    1
    14     7    13    1
    15     8    10    1
    16     8    14    1
    17     4     5    1
    18    28    36    1
    19    30    33    1
    20    30    38    1
    21    31    34    1
    22    31    39    1
    23    32    35    1
    24    32    40    1
    25    41    43   ar
    26    15    19    2
    27    42    43   ar
    28    16    22    2
    29    17    12    1
    30    17    19   ar
    31    17    20   ar
    32    18    19   ar
    33    18    22   ar
    34    18    23    1
    35     9    10    1
    36     9    11    1
    37    10    12    1
    38    11     5    1
    39    33    34    1
    40    33    35    1
    41    34    36    1
    42    35    37    1
    43    37    43    1
    44    20    21   ar
    45    21    22   ar
@<TRIPOS>MOLECULE
*****
 43 45 0 0 0
SMALL
GASTEIGER

@<TRIPOS>ATOM
      1 P          22.9290   72.2653   -2.8719 P.3     1  UNL1        0.2189
      2 O          23.5576   70.8188   -3.2345 O.co2   1  UNL1       -0.4371
      3 O          22.8705   72.5812   -1.4061 O.2     1  UNL1       -0.5170
      4 O          21.5108   72.2788   -3.6507 O.3     1  UNL1       -0.3112
      5 C          20.6974   71.1214   -3.5943 C.3     1  UNL1        0.1811
      6 O          18.7951   72.0718   -4.7147 O.3     1  UNL1       -0.3308
      7 O          17.1449   70.9217   -2.4908 O.3     1  UNL1       -0.3794
      8 O          16.7546   69.1310   -4.5099 O.3     1  UNL1       -0.3779
      9 C          18.3078   70.3866   -3.1231 C.3     1  UNL1        0.1713
     10 C          17.9615   69.8643   -4.5014 C.3     1  UNL1        0.1895
     11 C          19.2417   71.5448   -3.4466 C.3     1  UNL1        0.1764
     12 C          17.8725   71.1465   -5.3113 C.3     1  UNL1        0.2383
     13 H          16.5330   70.2002   -2.2745 H       1  UNL1        0.2105
     14 H          16.8626   68.3243   -3.9812 H       1  UNL1        0.2106
     15 O          16.0528   70.4240   -7.3467 O.2     1  UNL1       -0.2464
     16 O          19.3605   70.4248  -10.5565 O.2     1  UNL1       -0.2670
     17 N          18.2313   70.9513   -6.6875 N.ar    1  UNL1       -0.2551
     18 N          17.7021   70.4241   -8.9433 N.ar    1  UNL1       -0.2743
     19 C          17.2406   70.5892   -7.6307 C.ar    1  UNL1        0.3323
     20 C          19.5502   71.1201   -7.0911 C.ar    1  UNL1        0.0869
     21 C          19.9749   70.9594   -8.3459 C.ar    1  UNL1        0.0795
     22 C          19.0034   70.5802   -9.3927 C.ar    1  UNL1        0.2626
     23 H          17.0311   70.1700   -9.6174 H       1  UNL1        0.1734
     24 O          23.8325   73.2827   -3.7445 O.3     1  UNL1       -0.2703
     25 P          23.5864   74.8230   -4.1696 P.3     1  UNL1        0.2208
     26 O          22.4313   75.3094   -3.1451 O.co2   1  UNL1       -0.4371
     27 O          23.2479   75.0150   -5.6195 O.2     1  UNL1       -0.5170
     28 O          24.9147   75.5989   -3.6837 O.3     1  UNL1       -0.2858
     29 O          26.9352   74.7817   -4.6105 O.3     1  UNL1       -0.3226
     30 O          28.3283   77.3580   -1.6967 O.3     1  UNL1       -0.3794
     31 O          26.0671   75.5902   -1.1523 O.3     1  UNL1       -0.3775
     32 O          28.4151   78.1372   -4.4961 O.3     1  UNL1       -0.3792
     33 C          27.4217   76.8853   -2.6930 C.3     1  UNL1        0.1718
     34 C          26.9046   75.5015   -2.2992 C.3     1  UNL1        0.1968
     35 C          28.1759   76.8131   -4.0227 C.3     1  UNL1        0.1723
     36 C          26.1150   74.8661   -3.4445 C.3     1  UNL1        0.2706
     37 C          27.3745   76.0554   -5.0773 C.3     1  UNL1        0.1830
     38 H          27.8710   77.4121   -0.8427 H       1  UNL1        0.2105
     39 H          26.5617   75.9928   -0.4217 H       1  UNL1        0.2106
     40 H          28.9243   78.6302   -3.8339 H       1  UNL1        0.2106
     41 O          29.5480   75.8052   -5.9227 O.co2   1  UNL1       -0.5466
     42 O          27.8214   75.3717   -7.3475 O.co2   1  UNL1       -0.5466
     43 C          28.2351   75.7053   -6.2473 C.2     1  UNL1        0.0799
@<TRIPOS>UNITY_ATOM_ATTR
2 1
charge -1
26 1
charge -1
41 1
charge -1
@<TRIPOS>BOND
     1     1     4    1
     2     1    24    1
     3     1     2    1
     4     1     3    2
     5    25    28    1
     6    25    24    1
     7    25    26    1
     8    25    27    2
     9     6    11    1
    10     6    12    1
    11    29    36    1
    12    29    37    1
    13     7     9    1
    14     7    13    1
    15     8    10    1
    16     8    14    1
    17     4     5    1
    18    28    36    1
    19    30    33    1
    20    30    38    1
    21    31    34    1
    22    31    39    1
    23    32    35    1
    24    32    40    1
    25    41    43   ar
    26    15    19    2
    27    42    43   ar
    28    16    22    2
    29    17    12    1
    30    17    19   ar
    31    17    20   ar
    32    18    19   ar
    33    18    22   ar
    34    18    23    1
    35     9    10    1
    36     9    11    1
    37    10    12    1
    38    11     5    1
    39    33    34    1
    40    33    35    1
    41    34    36    1
    42    35    37    1
    43    37    43    1
    44    20    21   ar
    45    21    22   ar
@<TRIPOS>MOLECULE
*****
 43 45 0 0 0
SMALL
GASTEIGER

@<TRIPOS>ATOM
      1 P          22.6025   72.0506   -3.7472 P.3     1  UNL1        0.2189
      2 O          23.5161   70.8137   -3.2429 O.co2   1  UNL1       -0.4371
      3 O          23.1490   72.8029   -4.9250 O.2     1  UNL1       -0.5170
      4 O          22.3576   72.9242   -2.4076 O.3     1  UNL1       -0.3112
      5 C          22.3402   72.2569   -1.1590 C.3     1  UNL1        0.1811
      6 O          21.0905   72.2397    0.8942 O.3     1  UNL1       -0.3308
      7 O          18.9395   73.6793   -0.6198 O.3     1  UNL1       -0.3794
      8 O          20.1448   75.6956    0.7651 O.3     1  UNL1       -0.3779
      9 C          20.3579   73.7945   -0.7357 C.3     1  UNL1        0.1713
     10 C          20.9198   74.5595    0.4438 C.3     1  UNL1        0.1895
     11 C          20.9597   72.4105   -0.5337 C.3     1  UNL1        0.1764
     12 C          20.8991   73.5083    1.5403 C.3     1  UNL1        0.2383
     13 H          18.5327   74.5513   -0.7452 H       1  UNL1        0.2105
     14 H          20.1906   76.3349    0.0362 H       1  UNL1        0.2106
     15 O          23.4438   74.5781    0.9432 O.2     1  UNL1       -0.2464
     16 O          24.8284   74.2097    5.3240 O.2     1  UNL1       -0.2670
     17 N          21.9435   73.7029    2.5058 N.ar    1  UNL1       -0.2551
     18 N          24.1313   74.3927    3.1255 N.ar    1  UNL1       -0.2743
     19 C          23.1855   74.2475    2.1021 C.ar    1  UNL1        0.3323
     20 C          21.7323   73.3577    3.8351 C.ar    1  UNL1        0.0869
     21 C          22.6434   73.5020    4.7994 C.ar    1  UNL1        0.0795
     22 C          23.9679   74.0632    4.4613 C.ar    1  UNL1        0.2626
     23 H          25.0044   74.7679    2.8682 H       1  UNL1        0.1734
     24 O          21.1630   71.3596   -3.9986 O.3     1  UNL1       -0.2703
     25 P          19.7615   71.9824   -4.5099 P.3     1  UNL1        0.2208
     26 O          19.9913   73.5782   -4.3655 O.co2   1  UNL1       -0.4371
     27 O          18.5551   71.4631   -3.7826 O.2     1  UNL1       -0.5170
     28 O          19.7507   71.7149   -6.1007 O.3     1  UNL1       -0.2858
     29 O          17.4278   71.6826   -6.5614 O.3     1  UNL1       -0.3226
     30 O          19.0390   71.7105  -10.3655 O.3     1  UNL1       -0.3794
     31 O          20.2096   70.0405   -8.2738 O.3     1  UNL1       -0.3775
     32 O          17.8676   74.1302   -9.2592 O.3     1  UNL1       -0.3792
     33 C          18.9831   72.0141   -8.9717 C.3     1  UNL1        0.1718
     34 C          18.9614   70.7152   -8.1655 C.3     1  UNL1        0.1968
     35 C          17.7089   72.8216   -8.7143 C.3     1  UNL1        0.1723
     36 C          18.6713   70.9920   -6.6897 C.3     1  UNL1        0.2706
     37 C          17.4208   72.9467   -7.2210 C.3     1  UNL1        0.1830
     38 H          19.8408   71.1974  -10.5530 H       1  UNL1        0.2105
     39 H          20.4002   69.8620   -9.2076 H       1  UNL1        0.2106
     40 H          18.0516   74.0647  -10.2093 H       1  UNL1        0.2106
     41 O          15.2830   73.3129   -8.1139 O.co2   1  UNL1       -0.5466
     42 O          15.6123   73.8908   -5.9330 O.co2   1  UNL1       -0.5466
     43 C          16.0293   73.4386   -6.9887 C.2     1  UNL1        0.0799
@<TRIPOS>UNITY_ATOM_ATTR
2 1
charge -1
26 1
charge -1
41 1
charge -1
@<TRIPOS>BOND
     1     1     4    1
     2     1    24    1
     3     1     2    1
     4     1     3    2
     5    25    28    1
     6    25    24    1
     7    25    26    1
     8    25    27    2
     9     6    11    1
    10     6    12    1
    11    29    36    1
    12    29    37    1
    13     7     9    1
    14     7    13    1
    15     8    10    1
    16     8    14    1
    17     4     5    1
    18    28    36    1
    19    30    33    1
    20    30    38    1
    21    31    34    1
    22    31    39    1
    23    32    35    1
    24    32    40    1
    25    41    43   ar
    26    15    19    2
    27    42    43   ar
    28    16    22    2
    29    17    12    1
    30    17    19   ar
    31    17    20   ar
    32    18    19   ar
    33    18    22   ar
    34    18    23    1
    35     9    10    1
    36     9    11    1
    37    10    12    1
    38    11     5    1
    39    33    34    1
    40    33    35    1
    41    34    36    1
    42    35    37    1
    43    37    43    1
    44    20    21   ar
    45    21    22   ar
@<TRIPOS>MOLECULE
*****
 43 45 0 0 0
SMALL
GASTEIGER

@<TRIPOS>ATOM
      1 P          21.7348   73.3586   -5.5190 P.3     1  UNL1        0.2189
      2 O          21.6862   74.9190   -5.9451 O.co2   1  UNL1       -0.4371
      3 O          23.1088   72.8165   -5.2548 O.2     1  UNL1       -0.5170
      4 O          20.8968   72.6114   -6.6842 O.3     1  UNL1       -0.3112
      5 C          21.3498   72.7237   -8.0208 C.3     1  UNL1        0.1811
      6 O          19.9625   70.7743   -8.2517 O.3     1  UNL1       -0.3308
      7 O          18.5803   72.2488  -10.4668 O.3     1  UNL1       -0.3794
      8 O          16.8562   72.5601   -8.3772 O.3     1  UNL1       -0.3779
      9 C          19.1195   72.7528   -9.2446 C.3     1  UNL1        0.1713
     10 C          18.2251   72.3763   -8.0825 C.3     1  UNL1        0.1895
     11 C          20.3899   71.9728   -8.9346 C.3     1  UNL1        0.1764
     12 C          18.5859   70.9164   -7.8669 C.3     1  UNL1        0.2383
     13 H          17.7677   72.7320  -10.6856 H       1  UNL1        0.2105
     14 H          16.6772   73.5054   -8.5055 H       1  UNL1        0.2106
     15 O          16.1072   70.4354   -6.6015 O.2     1  UNL1       -0.2464
     16 O          18.1456   69.3707   -2.6071 O.2     1  UNL1       -0.2670
     17 N          18.4399   70.5124   -6.4971 N.ar    1  UNL1       -0.2551
     18 N          17.1247   69.9066   -4.6130 N.ar    1  UNL1       -0.2743
     19 C          17.1493   70.2970   -5.9584 C.ar    1  UNL1        0.3323
     20 C          19.5661   70.3320   -5.7033 C.ar    1  UNL1        0.0869
     21 C          19.5268   69.9595   -4.4225 C.ar    1  UNL1        0.0795
     22 C          18.2174   69.7149   -3.7830 C.ar    1  UNL1        0.2626
     23 H          16.2373   69.7527   -4.2153 H       1  UNL1        0.1734
     24 O          20.7315   73.2966   -4.2531 O.3     1  UNL1       -0.2703
     25 P          20.8235   73.9811   -2.7914 P.3     1  UNL1        0.2208
     26 O          19.2917   74.4048   -2.4843 O.co2   1  UNL1       -0.4371
     27 O          21.8076   75.1113   -2.7015 O.2     1  UNL1       -0.5170
     28 O          21.1170   72.7561   -1.7836 O.3     1  UNL1       -0.2858
     29 O          22.8938   73.2997   -0.3151 O.3     1  UNL1       -0.3226
     30 O          22.1038   69.3829    0.7350 O.3     1  UNL1       -0.3794
     31 O          22.1376   70.1851   -2.0739 O.3     1  UNL1       -0.3775
     32 O          21.2222   71.5593    2.4487 O.3     1  UNL1       -0.3792
     33 C          21.7906   70.6966    0.2722 C.3     1  UNL1        0.1718
     34 C          22.5900   70.9965   -0.9961 C.3     1  UNL1        0.1968
     35 C          22.1569   71.6878    1.3790 C.3     1  UNL1        0.1723
     36 C          22.4578   72.4680   -1.3910 C.3     1  UNL1        0.2706
     37 C          22.1230   73.1267    0.8719 C.3     1  UNL1        0.1830
     38 H          21.8795   68.7358    0.0479 H       1  UNL1        0.2105
     39 H          22.2184   69.2500   -1.8301 H       1  UNL1        0.2106
     40 H          21.2337   70.6479    2.7805 H       1  UNL1        0.2106
     41 O          22.0717   74.1349    2.9891 O.co2   1  UNL1       -0.5466
     42 O          23.8383   74.6402    1.6389 O.co2   1  UNL1       -0.5466
     43 C          22.7897   74.0468    1.8420 C.2     1  UNL1        0.0799
@<TRIPOS>UNITY_ATOM_ATTR
2 1
charge -1
26 1
charge -1
41 1
charge -1
@<TRIPOS>BOND
     1     1     4    1
     2     1    24    1
     3     1     2    1
     4     1     3    2
     5    25    28    1
     6    25    24    1
     7    25    26    1
     8    25    27    2
     9     6    11    1
    10     6    12    1
    11    29    36    1
    12    29    37    1
    13     7     9    1
    14     7    13    1
    15     8    10    1
    16     8    14    1
    17     4     5    1
    18    28    36    1
    19    30    33    1
    20    30    38    1
    21    31    34    1
    22    31    39    1
    23    32    35    1
    24    32    40    1
    25    41    43   ar
    26    15    19    2
    27    42    43   ar
    28    16    22    2
    29    17    12    1
    30    17    19   ar
    31    17    20   ar
    32    18    19   ar
    33    18    22   ar
    34    18    23    1
    35     9    10    1
    36     9    11    1
    37    10    12    1
    38    11     5    1
    39    33    34    1
    40    33    35    1
    41    34    36    1
    42    35    37    1
    43    37    43    1
    44    20    21   ar
    45    21    22   ar
@<TRIPOS>MOLECULE
*****
 43 45 0 0 0
SMALL
GASTEIGER

@<TRIPOS>ATOM
      1 P          22.1164   71.0984   -2.9231 P.3     1  UNL1        0.2189
      2 O          21.4897   69.6120   -3.0527 O.co2   1  UNL1       -0.4371
      3 O          23.5092   71.2478   -3.4611 O.2     1  UNL1       -0.5170
      4 O          21.9241   71.4661   -1.3592 O.3     1  UNL1       -0.3112
      5 C          21.9285   72.8302   -0.9799 C.3     1  UNL1        0.1811
      6 O          20.9435   72.9106    1.2112 O.3     1  UNL1       -0.3308
      7 O          18.8111   74.6264   -0.0137 O.3     1  UNL1       -0.3794
      8 O          20.4058   76.4552    1.2306 O.3     1  UNL1       -0.3779
      9 C          20.2086   74.5780   -0.3021 C.3     1  UNL1        0.1713
     10 C          20.9959   75.2444    0.8062 C.3     1  UNL1        0.1895
     11 C          20.6619   73.1290   -0.1882 C.3     1  UNL1        0.1764
     12 C          20.9835   74.1773    1.8874 C.3     1  UNL1        0.2383
     13 H          18.4984   75.5426   -0.0802 H       1  UNL1        0.2105
     14 H          20.4385   77.1017    0.5075 H       1  UNL1        0.2106
     15 O          21.0740   73.2864    4.5659 O.2     1  UNL1       -0.2464
     16 O          25.5241   74.4125    4.9818 O.2     1  UNL1       -0.2670
     17 N          22.1528   74.2260    2.7188 N.ar    1  UNL1       -0.2551
     18 N          23.2900   73.8490    4.7708 N.ar    1  UNL1       -0.2743
     19 C          22.0919   73.7529    4.0509 C.ar    1  UNL1        0.3323
     20 C          23.3425   74.7360    2.2133 C.ar    1  UNL1        0.0869
     21 C          24.4765   74.8210    2.9116 C.ar    1  UNL1        0.0795
     22 C          24.4978   74.3491    4.3117 C.ar    1  UNL1        0.2626
     23 H          23.2717   73.5278    5.7013 H       1  UNL1        0.1734
     24 O          21.0099   72.0236   -3.6527 O.3     1  UNL1       -0.2703
     25 P          21.1389   73.0573   -4.8890 P.3     1  UNL1        0.2208
     26 O          22.5642   72.6675   -5.5499 O.co2   1  UNL1       -0.4371
     27 O          21.0121   74.5018   -4.4998 O.2     1  UNL1       -0.5170
     28 O          20.0423   72.5537   -5.9597 O.3     1  UNL1       -0.2858
     29 O          19.0066   70.4240   -5.9342 O.3     1  UNL1       -0.3226
     30 O          18.6665   71.4765   -9.9147 O.3     1  UNL1       -0.3794
     31 O          21.1420   71.9941   -8.4524 O.3     1  UNL1       -0.3775
     32 O          16.3504   71.6221   -8.1639 O.3     1  UNL1       -0.3792
     33 C          18.7337   71.7058   -8.5073 C.3     1  UNL1        0.1718
     34 C          20.0697   71.1936   -7.9685 C.3     1  UNL1        0.1968
     35 C          17.5724   70.9566   -7.8501 C.3     1  UNL1        0.1723
     36 C          20.0858   71.2110   -6.4394 C.3     1  UNL1        0.2706
     37 C          17.7269   70.9103   -6.3327 C.3     1  UNL1        0.1830
     38 H          19.3952   71.9431  -10.3537 H       1  UNL1        0.2105
     39 H          21.1377   71.9878   -9.4221 H       1  UNL1        0.2106
     40 H          16.2401   71.6585   -9.1268 H       1  UNL1        0.2106
     41 O          16.7038   70.0825   -4.3911 O.co2   1  UNL1       -0.5466
     42 O          16.1749   69.0632   -6.3610 O.co2   1  UNL1       -0.5466
     43 C          16.7881   69.9140   -5.7341 C.2     1  UNL1        0.0799
@<TRIPOS>UNITY_ATOM_ATTR
2 1
charge -1
26 1
charge -1
41 1
charge -1
@<TRIPOS>BOND
     1     1     4    1
     2     1    24    1
     3     1     2    1
     4     1     3    2
     5    25    28    1
     6    25    24    1
     7    25    26    1
     8    25    27    2
     9     6    11    1
    10     6    12    1
    11    29    36    1
    12    29    37    1
    13     7     9    1
    14     7    13    1
    15     8    10    1
    16     8    14    1
    17     4     5    1
    18    28    36    1
    19    30    33    1
    20    30    38    1
    21    31    34    1
    22    31    39    1
    23    32    35    1
    24    32    40    1
    25    41    43   ar
    26    15    19    2
    27    42    43   ar
    28    16    22    2
    29    17    12    1
    30    17    19   ar
    31    17    20   ar
    32    18    19   ar
    33    18    22   ar
    34    18    23    1
    35     9    10    1
    36     9    11    1
    37    10    12    1
    38    11     5    1
    39    33    34    1
    40    33    35    1
    41    34    36    1
    42    35    37    1
    43    37    43    1
    44    20    21   ar
    45    21    22   ar
@<TRIPOS>MOLECULE
*****
 43 45 0 0 0
SMALL
GASTEIGER

@<TRIPOS>ATOM
      1 P          19.9921   74.2995   -3.5188 P.3     1  UNL1        0.2189
      2 O          18.7846   74.7441   -4.5002 O.co2   1  UNL1       -0.4371
      3 O          19.5909   73.3960   -2.3898 O.2     1  UNL1       -0.5170
      4 O          20.6783   75.7000   -3.0880 O.3     1  UNL1       -0.3112
      5 C          22.0844   75.7429   -2.9278 C.3     1  UNL1        0.1811
      6 O          21.8872   75.4804   -0.5466 O.3     1  UNL1       -0.3308
      7 O          24.1055   77.4862   -0.3289 O.3     1  UNL1       -0.3794
      8 O          25.4015   75.1194    0.0645 O.3     1  UNL1       -0.3779
      9 C          23.9056   76.4621   -1.3035 C.3     1  UNL1        0.1713
     10 C          24.2209   75.1053   -0.7104 C.3     1  UNL1        0.1895
     11 C          22.4107   76.3534   -1.5709 C.3     1  UNL1        0.1764
     12 C          22.9795   74.8281    0.1203 C.3     1  UNL1        0.2383
     13 H          25.0536   77.5741   -0.1416 H       1  UNL1        0.2105
     14 H          26.1630   75.2995   -0.5097 H       1  UNL1        0.2106
     15 O          23.1913   72.9931   -2.0162 O.2     1  UNL1       -0.2464
     16 O          21.8512   69.4701    0.6364 O.2     1  UNL1       -0.2670
     17 N          22.6921   73.4255    0.2249 N.ar    1  UNL1       -0.2551
     18 N          22.5227   71.2404   -0.6933 N.ar    1  UNL1       -0.2743
     19 C          22.8300   72.5902   -0.9089 C.ar    1  UNL1        0.3323
     20 C          22.2806   72.8905    1.4395 C.ar    1  UNL1        0.0869
     21 C          21.9914   71.6017    1.6297 C.ar    1  UNL1        0.0795
     22 C          22.1091   70.6617    0.4957 C.ar    1  UNL1        0.2626
     23 H          22.6093   70.6397   -1.4685 H       1  UNL1        0.1734
     24 O          21.0732   73.6637   -4.5385 O.3     1  UNL1       -0.2703
     25 P          21.1417   73.6721   -6.1537 P.3     1  UNL1        0.2208
     26 O          22.4436   72.7649   -6.4734 O.co2   1  UNL1       -0.4371
     27 O          21.1799   75.0445   -6.7612 O.2     1  UNL1       -0.5170
     28 O          19.8903   72.7677   -6.6212 O.3     1  UNL1       -0.2858
     29 O          19.0613   70.6401   -5.9925 O.3     1  UNL1       -0.3226
     30 O          18.4922   70.5887  -10.0842 O.3     1  UNL1       -0.3794
     31 O          20.9549   71.6712   -8.9451 O.3     1  UNL1       -0.3775
     32 O          16.2318   70.9935   -8.3015 O.3     1  UNL1       -0.3792
     33 C          18.5840   71.1811   -8.7886 C.3     1  UNL1        0.1718
     34 C          19.9793   70.9387   -8.2127 C.3     1  UNL1        0.1968
     35 C          17.5207   70.5357   -7.8970 C.3     1  UNL1        0.1723
     36 C          20.0443   71.3547   -6.7425 C.3     1  UNL1        0.2706
     37 C          17.7289   70.8988   -6.4296 C.3     1  UNL1        0.1830
     38 H          19.1587   70.9834  -10.6683 H       1  UNL1        0.2105
     39 H          20.9191   71.4124   -9.8790 H       1  UNL1        0.2106
     40 H          16.0868   70.7688   -9.2339 H       1  UNL1        0.2106
     41 O          16.2466   69.0877   -6.2746 O.co2   1  UNL1       -0.5466
     42 O          16.8396   70.1160   -4.3278 O.co2   1  UNL1       -0.5466
     43 C          16.9085   70.0187   -5.5438 C.2     1  UNL1        0.0799
@<TRIPOS>UNITY_ATOM_ATTR
2 1
charge -1
26 1
charge -1
41 1
charge -1
@<TRIPOS>BOND
     1     1     4    1
     2     1    24    1
     3     1     2    1
     4     1     3    2
     5    25    28    1
     6    25    24    1
     7    25    26    1
     8    25    27    2
     9     6    11    1
    10     6    12    1
    11    29    36    1
    12    29    37    1
    13     7     9    1
    14     7    13    1
    15     8    10    1
    16     8    14    1
    17     4     5    1
    18    28    36    1
    19    30    33    1
    20    30    38    1
    21    31    34    1
    22    31    39    1
    23    32    35    1
    24    32    40    1
    25    41    43   ar
    26    15    19    2
    27    42    43   ar
    28    16    22    2
    29    17    12    1
    30    17    19   ar
    31    17    20   ar
    32    18    19   ar
    33    18    22   ar
    34    18    23    1
    35     9    10    1
    36     9    11    1
    37    10    12    1
    38    11     5    1
    39    33    34    1
    40    33    35    1
    41    34    36    1
    42    35    37    1
    43    37    43    1
    44    20    21   ar
    45    21    22   ar
@<TRIPOS>MOLECULE
*****
 43 45 0 0 0
SMALL
GASTEIGER

@<TRIPOS>ATOM
      1 P          23.2064   74.1856   -4.3274 P.3     1  UNL1        0.2189
      2 O          23.7486   72.6800   -4.0867 O.co2   1  UNL1       -0.4371
      3 O          24.1800   75.1100   -4.9978 O.2     1  UNL1       -0.5170
      4 O          22.6883   74.6502   -2.8667 O.3     1  UNL1       -0.3112
      5 C          23.5224   75.4888   -2.0886 C.3     1  UNL1        0.1811
      6 O          21.8979   74.8710   -0.4281 O.3     1  UNL1       -0.3308
      7 O          22.9412   77.1757    1.1818 O.3     1  UNL1       -0.3794
      8 O          24.1530   75.0327    2.3545 O.3     1  UNL1       -0.3779
      9 C          23.6484   76.2768    0.3272 C.3     1  UNL1        0.1713
     10 C          23.7928   74.9248    0.9931 C.3     1  UNL1        0.1895
     11 C          22.7513   75.9531   -0.8597 C.3     1  UNL1        0.1764
     12 C          22.4090   74.3286    0.7999 C.3     1  UNL1        0.2383
     13 H          23.4946   77.3971    1.9476 H       1  UNL1        0.2105
     14 H          25.0414   75.4171    2.4243 H       1  UNL1        0.2106
     15 O          22.4011   72.5772    3.0155 O.2     1  UNL1       -0.2464
     16 O          22.5225   68.8524    0.3034 O.2     1  UNL1       -0.2670
     17 N          22.4381   72.8967    0.7014 N.ar    1  UNL1       -0.2551
     18 N          22.4626   70.7237    1.6627 N.ar    1  UNL1       -0.2743
     19 C          22.4314   72.1081    1.8762 C.ar    1  UNL1        0.3323
     20 C          22.4710   72.2878   -0.5473 C.ar    1  UNL1        0.0869
     21 C          22.5003   70.9670   -0.7349 C.ar    1  UNL1        0.0795
     22 C          22.4966   70.0717    0.4406 C.ar    1  UNL1        0.2626
     23 H          22.4607   70.1541    2.4657 H       1  UNL1        0.1734
     24 O          21.8308   73.9499   -5.1429 O.3     1  UNL1       -0.2703
     25 P          21.4416   74.2626   -6.6805 P.3     1  UNL1        0.2208
     26 O          22.6583   73.5946   -7.5133 O.co2   1  UNL1       -0.4371
     27 O          21.2161   75.7174   -6.9750 O.2     1  UNL1       -0.5170
     28 O          20.1723   73.3139   -6.9825 O.3     1  UNL1       -0.2858
     29 O          19.3934   71.2713   -6.0711 O.3     1  UNL1       -0.3226
     30 O          18.5784   70.7641  -10.0894 O.3     1  UNL1       -0.3794
     31 O          21.1000   71.9627   -9.2296 O.3     1  UNL1       -0.3775
     32 O          16.4279   71.3695   -8.2294 O.3     1  UNL1       -0.3792
     33 C          18.7453   71.4974   -8.8760 C.3     1  UNL1        0.1718
     34 C          20.1741   71.3184   -8.3623 C.3     1  UNL1        0.1968
     35 C          17.7411   70.9575   -7.8552 C.3     1  UNL1        0.1723
     36 C          20.3257   71.8960   -6.9544 C.3     1  UNL1        0.2706
     37 C          18.0358   71.4819   -6.4528 C.3     1  UNL1        0.1830
     38 H          19.2064   71.0898  -10.7533 H       1  UNL1        0.2105
     39 H          21.0091   71.6013  -10.1249 H       1  UNL1        0.2106
     40 H          16.2279   71.0423   -9.1204 H       1  UNL1        0.2106
     41 O          16.7004   69.6121   -5.9816 O.co2   1  UNL1       -0.5466
     42 O          17.1799   71.0116   -4.2465 O.co2   1  UNL1       -0.5466
     43 C          17.2747   70.7078   -5.4262 C.2     1  UNL1        0.0799
@<TRIPOS>UNITY_ATOM_ATTR
2 1
charge -1
26 1
charge -1
41 1
charge -1
@<TRIPOS>BOND
     1     1     4    1
     2     1    24    1
     3     1     2    1
     4     1     3    2
     5    25    28    1
     6    25    24    1
     7    25    26    1
     8    25    27    2
     9     6    11    1
    10     6    12    1
    11    29    36    1
    12    29    37    1
    13     7     9    1
    14     7    13    1
    15     8    10    1
    16     8    14    1
    17     4     5    1
    18    28    36    1
    19    30    33    1
    20    30    38    1
    21    31    34    1
    22    31    39    1
    23    32    35    1
    24    32    40    1
    25    41    43   ar
    26    15    19    2
    27    42    43   ar
    28    16    22    2
    29    17    12    1
    30    17    19   ar
    31    17    20   ar
    32    18    19   ar
    33    18    22   ar
    34    18    23    1
    35     9    10    1
    36     9    11    1
    37    10    12    1
    38    11     5    1
    39    33    34    1
    40    33    35    1
    41    34    36    1
    42    35    37    1
    43    37    43    1
    44    20    21   ar
    45    21    22   ar
@<TRIPOS>MOLECULE
*****
 43 45 0 0 0
SMALL
GASTEIGER

@<TRIPOS>ATOM
      1 P          21.7770   72.9766   -5.0366 P.3     1  UNL1        0.2189
      2 O          21.0314   74.4123   -4.9983 O.co2   1  UNL1       -0.4371
      3 O          23.2668   73.0406   -5.2052 O.2     1  UNL1       -0.5170
      4 O          20.9758   72.1529   -6.1757 O.3     1  UNL1       -0.3112
      5 C          21.1229   72.5500   -7.5267 C.3     1  UNL1        0.1811
      6 O          19.3832   70.8914   -7.5286 O.3     1  UNL1       -0.3308
      7 O          18.8564   71.7157  -10.3631 O.3     1  UNL1       -0.3794
      8 O          16.8807   73.0010   -8.9917 O.3     1  UNL1       -0.3779
      9 C          19.2494   72.5156   -9.2476 C.3     1  UNL1        0.1713
     10 C          18.0806   72.7116   -8.3054 C.3     1  UNL1        0.1895
     11 C          20.2102   71.6958   -8.3971 C.3     1  UNL1        0.1764
     12 C          18.0325   71.3773   -7.5806 C.3     1  UNL1        0.2383
     13 H          18.2421   72.2184  -10.9213 H       1  UNL1        0.2105
     14 H          16.9616   73.8600   -9.4361 H       1  UNL1        0.2106
     15 O          15.6342   72.7015   -6.8942 O.2     1  UNL1       -0.2464
     16 O          16.1946   71.7811   -2.4128 O.2     1  UNL1       -0.2670
     17 N          17.5280   71.4986   -6.2421 N.ar    1  UNL1       -0.2551
     18 N          15.9161   72.2427   -4.6627 N.ar    1  UNL1       -0.2743
     19 C          16.3131   72.1842   -6.0051 C.ar    1  UNL1        0.3323
     20 C          18.2328   70.9413   -5.1821 C.ar    1  UNL1        0.0869
     21 C          17.8416   71.0051   -3.9079 C.ar    1  UNL1        0.0795
     22 C          16.5834   71.7045   -3.5743 C.ar    1  UNL1        0.2626
     23 H          15.0744   72.7167   -4.4727 H       1  UNL1        0.1734
     24 O          21.2840   72.2749   -3.6664 O.3     1  UNL1       -0.2703
     25 P          21.7313   70.8899   -2.9626 P.3     1  UNL1        0.2208
     26 O          23.3339   70.8611   -3.1882 O.co2   1  UNL1       -0.4371
     27 O          21.0122   69.6770   -3.4780 O.2     1  UNL1       -0.5170
     28 O          21.5473   71.1560   -1.3821 O.3     1  UNL1       -0.2858
     29 O          23.1648   72.7080   -0.6180 O.3     1  UNL1       -0.3226
     30 O          21.2483   71.6917    2.8979 O.3     1  UNL1       -0.3794
     31 O          21.9049   69.6415    0.9232 O.3     1  UNL1       -0.3775
     32 O          20.7099   74.2516    1.6298 O.3     1  UNL1       -0.3792
     33 C          21.3554   71.9343    1.4952 C.3     1  UNL1        0.1718
     34 C          22.3847   70.9806    0.8881 C.3     1  UNL1        0.1968
     35 C          21.7948   73.3869    1.2986 C.3     1  UNL1        0.1723
     36 C          22.6951   71.3606   -0.5603 C.3     1  UNL1        0.2706
     37 C          22.2075   73.6535   -0.1461 C.3     1  UNL1        0.1830
     38 H          20.9702   70.7743    3.0473 H       1  UNL1        0.2105
     39 H          21.7056   69.3938    1.8393 H       1  UNL1        0.2106
     40 H          20.4375   74.0919    2.5470 H       1  UNL1        0.2106
     41 O          24.0795   74.9254    0.4697 O.co2   1  UNL1       -0.5466
     42 O          22.5612   75.9127   -0.9157 O.co2   1  UNL1       -0.5466
     43 C          22.9359   74.9531   -0.2585 C.2     1  UNL1        0.0799
@<TRIPOS>UNITY_ATOM_ATTR
2 1
charge -1
26 1
charge -1
41 1
charge -1
@<TRIPOS>BOND
     1     1     4    1
     2     1    24    1
     3     1     2    1
     4     1     3    2
     5    25    28    1
     6    25    24    1
     7    25    26    1
     8    25    27    2
     9     6    11    1
    10     6    12    1
    11    29    36    1
    12    29    37    1
    13     7     9    1
    14     7    13    1
    15     8    10    1
    16     8    14    1
    17     4     5    1
    18    28    36    1
    19    30    33    1
    20    30    38    1
    21    31    34    1
    22    31    39    1
    23    32    35    1
    24    32    40    1
    25    41    43   ar
    26    15    19    2
    27    42    43   ar
    28    16    22    2
    29    17    12    1
    30    17    19   ar
    31    17    20   ar
    32    18    19   ar
    33    18    22   ar
    34    18    23    1
    35     9    10    1
    36     9    11    1
    37    10    12    1
    38    11     5    1
    39    33    34    1
    40    33    35    1
    41    34    36    1
    42    35    37    1
    43    37    43    1
    44    20    21   ar
    45    21    22   ar
@<TRIPOS>MOLECULE
*****
 43 45 0 0 0
SMALL
GASTEIGER

@<TRIPOS>ATOM
      1 P          21.9856   73.4320   -5.5504 P.3     1  UNL1        0.2189
      2 O          20.9621   74.1666   -4.5346 O.co2   1  UNL1       -0.4371
      3 O          22.8643   74.3554   -6.3422 O.2     1  UNL1       -0.5170
      4 O          21.0351   72.4510   -6.4176 O.3     1  UNL1       -0.3112
      5 C          21.1442   72.4778   -7.8289 C.3     1  UNL1        0.1811
      6 O          18.8596   71.7581   -7.6279 O.3     1  UNL1       -0.3308
      7 O          19.0831   70.8702  -10.4833 O.3     1  UNL1       -0.3794
      8 O          17.7480   73.2382  -10.6984 O.3     1  UNL1       -0.3779
      9 C          19.6622   72.0071   -9.8426 C.3     1  UNL1        0.1713
     10 C          18.6053   73.0614   -9.5901 C.3     1  UNL1        0.1895
     11 C          20.0517   71.6013   -8.4277 C.3     1  UNL1        0.1764
     12 C          17.8840   72.5006   -8.3764 C.3     1  UNL1        0.2383
     13 H          18.8262   71.1051  -11.3891 H       1  UNL1        0.2105
     14 H          18.2542   73.5971  -11.4447 H       1  UNL1        0.2106
     15 O          15.2609   73.5214   -8.6083 O.2     1  UNL1       -0.2464
     16 O          15.8968   76.4532   -5.1091 O.2     1  UNL1       -0.2670
     17 N          17.3381   73.5309   -7.5389 N.ar    1  UNL1       -0.2551
     18 N          15.5804   74.9814   -6.8659 N.ar    1  UNL1       -0.2743
     19 C          16.0088   73.9725   -7.7387 C.ar    1  UNL1        0.3323
     20 C          18.1156   74.0913   -6.5327 C.ar    1  UNL1        0.0869
     21 C          17.6934   75.0521   -5.7085 C.ar    1  UNL1        0.0795
     22 C          16.3169   75.5703   -5.8508 C.ar    1  UNL1        0.2626
     23 H          14.6591   75.3065   -6.9870 H       1  UNL1        0.1734
     24 O          22.7814   72.4077   -4.5859 O.3     1  UNL1       -0.2703
     25 P          22.2582   71.4480   -3.3946 P.3     1  UNL1        0.2208
     26 O          23.5549   70.5409   -3.0541 O.co2   1  UNL1       -0.4371
     27 O          21.0252   70.6616   -3.7340 O.2     1  UNL1       -0.5170
     28 O          22.0994   72.4256   -2.1213 O.3     1  UNL1       -0.2858
     29 O          21.3666   71.4262   -0.1031 O.3     1  UNL1       -0.3226
     30 O          20.9558   75.4470    0.7525 O.3     1  UNL1       -0.3794
     31 O          20.1572   74.3987   -1.8547 O.3     1  UNL1       -0.3775
     32 O          23.1756   73.9372    1.8678 O.3     1  UNL1       -0.3792
     33 C          21.5391   74.2986    0.1369 C.3     1  UNL1        0.1718
     34 C          20.4935   73.5957   -0.7292 C.3     1  UNL1        0.1968
     35 C          22.0270   73.3640    1.2460 C.3     1  UNL1        0.1723
     36 C          21.0096   72.2421   -1.2194 C.3     1  UNL1        0.2706
     37 C          22.4049   71.9929    0.6931 C.3     1  UNL1        0.1830
     38 H          20.6384   76.0556    0.0668 H       1  UNL1        0.2105
     39 H          19.8292   75.2592   -1.5510 H       1  UNL1        0.2106
     40 H          22.9485   74.8104    2.2239 H       1  UNL1        0.2106
     41 O          21.9261   71.4266    2.9183 O.co2   1  UNL1       -0.5466
     42 O          23.1707   69.9446    1.7126 O.co2   1  UNL1       -0.5466
     43 C          22.5603   70.9996    1.7983 C.2     1  UNL1        0.0799
@<TRIPOS>UNITY_ATOM_ATTR
2 1
charge -1
26 1
charge -1
41 1
charge -1
@<TRIPOS>BOND
     1     1     4    1
     2     1    24    1
     3     1     2    1
     4     1     3    2
     5    25    28    1
     6    25    24    1
     7    25    26    1
     8    25    27    2
     9     6    11    1
    10     6    12    1
    11    29    36    1
    12    29    37    1
    13     7     9    1
    14     7    13    1
    15     8    10    1
    16     8    14    1
    17     4     5    1
    18    28    36    1
    19    30    33    1
    20    30    38    1
    21    31    34    1
    22    31    39    1
    23    32    35    1
    24    32    40    1
    25    41    43   ar
    26    15    19    2
    27    42    43   ar
    28    16    22    2
    29    17    12    1
    30    17    19   ar
    31    17    20   ar
    32    18    19   ar
    33    18    22   ar
    34    18    23    1
    35     9    10    1
    36     9    11    1
    37    10    12    1
    38    11     5    1
    39    33    34    1
    40    33    35    1
    41    34    36    1
    42    35    37    1
    43    37    43    1
    44    20    21   ar
    45    21    22   ar
@<TRIPOS>MOLECULE
*****
 43 45 0 0 0
SMALL
GASTEIGER

@<TRIPOS>ATOM
      1 P          18.6158   74.7238   -1.8626 P.3     1  UNL1        0.2189
      2 O          19.2620   74.8064   -0.3812 O.co2   1  UNL1       -0.4371
      3 O          17.5208   75.7138   -2.1322 O.2     1  UNL1       -0.5170
      4 O          18.2095   73.1658   -2.0229 O.3     1  UNL1       -0.3112
      5 C          17.4434   72.7793   -3.1490 C.3     1  UNL1        0.1811
      6 O          16.8527   70.8392   -4.4392 O.3     1  UNL1       -0.3308
      7 O          18.1280   69.2281   -2.2553 O.3     1  UNL1       -0.3794
      8 O          20.0569   69.2512   -4.1827 O.3     1  UNL1       -0.3779
      9 C          18.5103   70.4991   -2.7816 C.3     1  UNL1        0.1713
     10 C          19.1482   70.3316   -4.1445 C.3     1  UNL1        0.1895
     11 C          17.2407   71.2699   -3.1166 C.3     1  UNL1        0.1764
     12 C          17.9372   70.1090   -5.0343 C.3     1  UNL1        0.2383
     13 H          18.9227   68.7172   -2.0338 H       1  UNL1        0.2105
     14 H          20.8099   69.4413   -3.6005 H       1  UNL1        0.2106
     15 O          16.1101   69.7499   -7.1578 O.2     1  UNL1       -0.2464
     16 O          18.8363   71.9892  -10.1239 O.2     1  UNL1       -0.2670
     17 N          18.1444   70.5879   -6.3716 N.ar    1  UNL1       -0.2551
     18 N          17.4701   70.8646   -8.6333 N.ar    1  UNL1       -0.2743
     19 C          17.1640   70.3544   -7.3648 C.ar    1  UNL1        0.3323
     20 C          19.3063   71.2813   -6.6878 C.ar    1  UNL1        0.0869
     21 C          19.5840   71.7617   -7.9014 C.ar    1  UNL1        0.0795
     22 C          18.6123   71.5599   -8.9961 C.ar    1  UNL1        0.2626
     23 H          16.8036   70.7127   -9.3418 H       1  UNL1        0.1734
     24 O          19.9039   74.8647   -2.8289 O.3     1  UNL1       -0.2703
     25 P          21.1909   73.9069   -3.0285 P.3     1  UNL1        0.2208
     26 O          22.4262   74.9520   -3.0738 O.co2   1  UNL1       -0.4371
     27 O          21.1042   72.9997   -4.2216 O.2     1  UNL1       -0.5170
     28 O          21.3554   73.1430   -1.6171 O.3     1  UNL1       -0.2858
     29 O          23.1435   73.3189   -0.0742 O.3     1  UNL1       -0.3226
     30 O          21.8117   69.4698    0.6178 O.3     1  UNL1       -0.3794
     31 O          22.0355   70.4914   -2.1100 O.3     1  UNL1       -0.3775
     32 O          21.1743   71.5944    2.4969 O.3     1  UNL1       -0.3792
     33 C          21.6888   70.8476    0.2647 C.3     1  UNL1        0.1718
     34 C          22.5586   71.1421   -0.9577 C.3     1  UNL1        0.1968
     35 C          22.1495   71.6849    1.4599 C.3     1  UNL1        0.1723
     36 C          22.6339   72.6458   -1.2260 C.3     1  UNL1        0.2706
     37 C          22.3213   73.1525    1.0788 C.3     1  UNL1        0.1830
     38 H          21.5245   68.9182   -0.1269 H       1  UNL1        0.2105
     39 H          21.9846   69.5369   -1.9466 H       1  UNL1        0.2106
     40 H          21.0554   70.6652    2.7486 H       1  UNL1        0.2106
     41 O          23.1641   73.1472    3.2677 O.co2   1  UNL1       -0.5466
     42 O          23.5492   75.0093    2.0093 O.co2   1  UNL1       -0.5466
     43 C          23.0743   73.8908    2.1372 C.2     1  UNL1        0.0799
@<TRIPOS>UNITY_ATOM_ATTR
2 1
charge -1
26 1
charge -1
41 1
charge -1
@<TRIPOS>BOND
     1     1     4    1
     2     1    24    1
     3     1     2    1
     4     1     3    2
     5    25    28    1
     6    25    24    1
     7    25    26    1
     8    25    27    2
     9     6    11    1
    10     6    12    1
    11    29    36    1
    12    29    37    1
    13     7     9    1
    14     7    13    1
    15     8    10    1
    16     8    14    1
    17     4     5    1
    18    28    36    1
    19    30    33    1
    20    30    38    1
    21    31    34    1
    22    31    39    1
    23    32    35    1
    24    32    40    1
    25    41    43   ar
    26    15    19    2
    27    42    43   ar
    28    16    22    2
    29    17    12    1
    30    17    19   ar
    31    17    20   ar
    32    18    19   ar
    33    18    22   ar
    34    18    23    1
    35     9    10    1
    36     9    11    1
    37    10    12    1
    38    11     5    1
    39    33    34    1
    40    33    35    1
    41    34    36    1
    42    35    37    1
    43    37    43    1
    44    20    21   ar
    45    21    22   ar
@<TRIPOS>MOLECULE
*****
 43 45 0 0 0
SMALL
GASTEIGER

@<TRIPOS>ATOM
      1 P          20.2043   74.9639   -4.1967 P.3     1  UNL1        0.2189
      2 O          20.6713   75.7502   -2.8615 O.co2   1  UNL1       -0.4371
      3 O          19.0226   75.5610   -4.9029 O.2     1  UNL1       -0.5170
      4 O          20.0286   73.4327   -3.7044 O.3     1  UNL1       -0.3112
      5 C          20.3920   73.1036   -2.3762 C.3     1  UNL1        0.1811
      6 O          22.4539   72.7577   -1.1902 O.3     1  UNL1       -0.3308
      7 O          22.8228   70.3324   -2.9145 O.3     1  UNL1       -0.3794
      8 O          21.9272   69.2660   -0.5700 O.3     1  UNL1       -0.3779
      9 C          21.6225   70.8768   -2.3657 C.3     1  UNL1        0.1713
     10 C          21.5480   70.5904   -0.8809 C.3     1  UNL1        0.1895
     11 C          21.7401   72.3946   -2.3919 C.3     1  UNL1        0.1764
     12 C          22.5072   71.6221   -0.3122 C.3     1  UNL1        0.2383
     13 H          22.7712   69.3634   -2.9083 H       1  UNL1        0.2105
     14 H          21.2854   68.6474   -0.9539 H       1  UNL1        0.2106
     15 O          23.1560   70.2023    2.0415 O.2     1  UNL1       -0.2464
     16 O          21.0543   73.3131    4.7155 O.2     1  UNL1       -0.2670
     17 N          22.1420   72.0384    1.0123 N.ar    1  UNL1       -0.2551
     18 N          22.1077   71.7525    3.3710 N.ar    1  UNL1       -0.2743
     19 C          22.5171   71.2527    2.1277 C.ar    1  UNL1        0.3323
     20 C          21.4225   73.2128    1.1965 C.ar    1  UNL1        0.0869
     21 C          21.0395   73.6764    2.3878 C.ar    1  UNL1        0.0795
     22 C          21.3905   72.9147    3.6044 C.ar    1  UNL1        0.2626
     23 H          22.3555   71.2216    4.1623 H       1  UNL1        0.1734
     24 O          21.5583   74.9092   -5.0779 O.3     1  UNL1       -0.2703
     25 P          22.0029   73.9246   -6.2806 P.3     1  UNL1        0.2208
     26 O          22.8096   72.7477   -5.5161 O.co2   1  UNL1       -0.4371
     27 O          22.7814   74.5992   -7.3728 O.2     1  UNL1       -0.5170
     28 O          20.6317   73.2283   -6.7677 O.3     1  UNL1       -0.2858
     29 O          19.6825   71.0727   -6.5200 O.3     1  UNL1       -0.3226
     30 O          18.6972   71.9812  -10.4279 O.3     1  UNL1       -0.3794
     31 O          21.3507   72.6161   -9.3838 O.3     1  UNL1       -0.3775
     32 O          16.6760   72.1210   -8.3432 O.3     1  UNL1       -0.3792
     33 C          18.9735   72.2594   -9.0553 C.3     1  UNL1        0.1718
     34 C          20.3928   71.8029   -8.7163 C.3     1  UNL1        0.1968
     35 C          17.9528   71.5007   -8.2042 C.3     1  UNL1        0.1723
     36 C          20.6444   71.8720   -7.2094 C.3     1  UNL1        0.2706
     37 C          18.3413   71.5096   -6.7286 C.3     1  UNL1        0.1830
     38 H          19.3336   72.4528  -10.9881 H       1  UNL1        0.2105
     39 H          21.1967   72.5772  -10.3405 H       1  UNL1        0.2106
     40 H          16.4170   72.1219   -9.2780 H       1  UNL1        0.2106
     41 O          18.2035   70.1149   -4.8478 O.co2   1  UNL1       -0.5466
     42 O          16.4356   70.0970   -6.2878 O.co2   1  UNL1       -0.5466
     43 C          17.5394   70.5083   -5.9628 C.2     1  UNL1        0.0799
@<TRIPOS>UNITY_ATOM_ATTR
2 1
charge -1
26 1
charge -1
41 1
charge -1
@<TRIPOS>BOND
     1     1     4    1
     2     1    24    1
     3     1     2    1
     4     1     3    2
     5    25    28    1
     6    25    24    1
     7    25    26    1
     8    25    27    2
     9     6    11    1
    10     6    12    1
    11    29    36    1
    12    29    37    1
    13     7     9    1
    14     7    13    1
    15     8    10    1
    16     8    14    1
    17     4     5    1
    18    28    36    1
    19    30    33    1
    20    30    38    1
    21    31    34    1
    22    31    39    1
    23    32    35    1
    24    32    40    1
    25    41    43   ar
    26    15    19    2
    27    42    43   ar
    28    16    22    2
    29    17    12    1
    30    17    19   ar
    31    17    20   ar
    32    18    19   ar
    33    18    22   ar
    34    18    23    1
    35     9    10    1
    36     9    11    1
    37    10    12    1
    38    11     5    1
    39    33    34    1
    40    33    35    1
    41    34    36    1
    42    35    37    1
    43    37    43    1
    44    20    21   ar
    45    21    22   ar
