@<TRIPOS>MOLECULE
UD2
 46 48 0 0 0
SMALL
GASTEIGER

@<TRIPOS>ATOM
      1 P          22.0806   71.0032   -2.7361 P.3     1  UNL1        0.2189
      2 O          21.5742   69.4763   -2.7958 O.3     1  UNL1       -0.4371
      3 O          23.3637   71.1267   -3.4622 O.2     1  UNL1       -0.5170
      4 O          20.9816   71.9601   -3.4219 O.3     1  UNL1       -0.3112
      5 C          19.9448   72.6075   -2.6820 C.3     1  UNL1        0.1811
      6 C          17.8193   71.4488   -5.3421 C.3     1  UNL1        0.2383
      7 C          17.9834   70.2205   -4.4113 C.3     1  UNL1        0.1895
      8 O          16.8187   69.3936   -4.4477 O.3     1  UNL1       -0.3779
      9 C          18.1462   70.8845   -3.0220 C.3     1  UNL1        0.1713
     10 C          18.5936   72.3235   -3.3426 C.3     1  UNL1        0.1764
     11 O          18.7165   72.4253   -4.7702 O.3     1  UNL1       -0.3308
     12 O          16.9002   70.8916   -2.3234 O.3     1  UNL1       -0.3794
     13 H          16.8733   68.6116   -3.8818 H       1  UNL1        0.2106
     14 H          16.5421   70.0111   -2.1473 H       1  UNL1        0.2105
     15 N          18.2220   71.1165   -6.7104 N.ar    1  UNL1       -0.2551
     16 C          17.2915   70.7434   -7.6070 C.ar    1  UNL1        0.3323
     17 N          17.6331   70.4323   -8.8713 N.ar    1  UNL1       -0.2743
     18 C          18.9229   70.4925   -9.2603 C.ar    1  UNL1        0.2626
     19 C          19.9127   70.8847   -8.3272 C.ar    1  UNL1        0.0795
     20 C          19.5412   71.1951   -7.0674 C.ar    1  UNL1        0.0869
     21 O          16.1246   70.6849   -7.2703 O.2     1  UNL1       -0.2464
     22 O          19.2334   70.2115  -10.4045 O.2     1  UNL1       -0.2670
     23 H          16.9497   70.1640   -9.5047 H       1  UNL1        0.1734
     24 O          22.2883   71.4404   -1.2003 O.3     1  UNL1       -0.2703
     25 P          22.5380   70.6302    0.1687 P.3     1  UNL1        0.2208
     26 O          21.3229   69.6016    0.4122 O.3     1  UNL1       -0.4371
     27 O          23.8083   69.8782    0.0725 O.2     1  UNL1       -0.5170
     28 O          22.6191   71.6665    1.3984 O.3     1  UNL1       -0.2865
     29 C          21.8060   72.8381    1.4840 C.3     1  UNL1        0.2611
     30 C          22.6526   74.0725    1.1643 C.3     1  UNL1        0.1582
     31 C          23.7659   74.2017    2.2085 C.3     1  UNL1        0.1625
     32 C          23.1375   74.2742    3.6028 C.3     1  UNL1        0.1686
     33 C          22.2720   73.0316    3.8286 C.3     1  UNL1        0.1760
     34 O          24.5167   75.3926    1.9605 O.3     1  UNL1       -0.3801
     35 O          22.3262   75.4462    3.7008 O.3     1  UNL1       -0.3794
     36 O          21.2765   72.9543    2.8063 O.3     1  UNL1       -0.3263
     37 H          25.2405   75.5379    2.5852 H       1  UNL1        0.2105
     38 H          21.8951   75.5562    4.5599 H       1  UNL1        0.2105
     39 C          23.2516   74.9721   -1.0196 C.2     1  UNL1        0.2231
     40 C          23.8607   74.8243   -2.3892 C.3     1  UNL1        0.0946
     41 N          23.2450   73.9278   -0.1678 N.am    1  UNL1       -0.2994
     42 O          22.7664   76.0319   -0.6825 O.2     1  UNL1       -0.2751
     43 H          23.6320   73.0801   -0.4373 H       1  UNL1        0.1496
     44 C          21.5929   73.1250    5.1962 C.3     1  UNL1        0.1693
     45 O          22.5391   73.5726    6.1692 O.3     1  UNL1       -0.3794
     46 H          22.1770   73.6552    7.0620 H       1  UNL1        0.2105
@<TRIPOS>BOND
     1    29    30    1
     2    30    41    1
     3    30    31    1
     4    31    34    1
     5    31    32    1
     6    32    35    1
     7    32    33    1
     8    33    36    1
     9    33    44    1
    10    39    40    1
    11    39    42    2
    12    39    41   am
    13    41    43    1
    14    29    28    1
    15    34    37    1
    16    35    38    1
    17    29    36    1
    18    44    45    1
    19    45    46    1
    20    15     6    1
    21    15    16   ar
    22    16    21    2
    23    16    17   ar
    24    17    23    1
    25    17    18   ar
    26    18    19   ar
    27    19    20   ar
    28    15    20   ar
    29    18    22    2
    30     6     7    1
    31     6    11    1
    32     7     9    1
    33     7     8    1
    34     8    13    1
    35     9    10    1
    36     9    12    1
    37    10     5    1
    38    10    11    1
    39    12    14    1
    40     5     4    1
    41     4     1    1
    42     1     2    1
    43     1    24    1
    44     1     3    2
    45    24    25    1
    46    28    25    1
    47    25    26    1
    48    25    27    2
@<TRIPOS>MOLECULE
UD2
 46 48 0 0 0
SMALL
GASTEIGER

@<TRIPOS>ATOM
      1 P          22.1401   73.8861   -6.3224 P.3     1  UNL1        0.2189
      2 O          22.7886   72.6624   -7.1430 O.3     1  UNL1       -0.4371
      3 O          23.0089   75.0775   -6.4435 O.2     1  UNL1       -0.5170
      4 O          20.6831   74.2211   -6.9211 O.3     1  UNL1       -0.3112
      5 C          20.3628   74.0870   -8.3071 C.3     1  UNL1        0.1811
      6 C          18.2072   71.4483   -7.1550 C.3     1  UNL1        0.2383
      7 C          17.3455   72.7318   -7.0442 C.3     1  UNL1        0.1895
      8 O          15.9620   72.4362   -7.2450 O.3     1  UNL1       -0.3779
      9 C          17.8995   73.5965   -8.2030 C.3     1  UNL1        0.1713
     10 C          19.2945   73.0047   -8.4809 C.3     1  UNL1        0.1764
     11 O          19.5087   71.9494   -7.5301 O.3     1  UNL1       -0.3308
     12 O          17.0660   73.4772   -9.3570 O.3     1  UNL1       -0.3794
     13 H          15.3820   73.2074   -7.1847 H       1  UNL1        0.2106
     14 H          16.1584   73.7807   -9.2208 H       1  UNL1        0.2105
     15 N          18.2720   70.7575   -5.8652 N.ar    1  UNL1       -0.2551
     16 C          17.3200   69.8656   -5.5384 C.ar    1  UNL1        0.3323
     17 N          17.3543   69.2162   -4.3597 N.ar    1  UNL1       -0.2743
     18 C          18.3526   69.4514   -3.4840 C.ar    1  UNL1        0.2626
     19 C          19.3619   70.3870   -3.8155 C.ar    1  UNL1        0.0795
     20 C          19.3048   71.0204   -5.0059 C.ar    1  UNL1        0.0869
     21 O          16.4140   69.6434   -6.3183 O.2     1  UNL1       -0.2464
     22 O          18.3851   68.8640   -2.4170 O.2     1  UNL1       -0.2670
     23 H          16.6592   68.5771   -4.1393 H       1  UNL1        0.1734
     24 O          22.0011   73.4782   -4.7707 O.3     1  UNL1       -0.2703
     25 P          23.0408   72.9704   -3.6509 P.3     1  UNL1        0.2208
     26 O          23.1914   71.3697   -3.7456 O.3     1  UNL1       -0.4371
     27 O          24.3585   73.6034   -3.8774 O.2     1  UNL1       -0.5170
     28 O          22.4955   73.3730   -2.1904 O.3     1  UNL1       -0.2865
     29 C          21.3274   72.7918   -1.6081 C.3     1  UNL1        0.2611
     30 C          20.7979   73.7075   -0.5018 C.3     1  UNL1        0.1582
     31 C          21.8558   73.8279    0.5994 C.3     1  UNL1        0.1625
     32 C          22.1984   72.4287    1.1184 C.3     1  UNL1        0.1686
     33 C          22.6741   71.5621   -0.0506 C.3     1  UNL1        0.1760
     34 O          21.3412   74.6220    1.6708 O.3     1  UNL1       -0.3801
     35 O          21.0376   71.8406    1.7083 O.3     1  UNL1       -0.3794
     36 O          21.6564   71.5168   -1.0528 O.3     1  UNL1       -0.3263
     37 H          21.9602   74.7407    2.4043 H       1  UNL1        0.2105
     38 H          21.1817   70.9504    2.0587 H       1  UNL1        0.2105
     39 C          21.4653   75.9901   -1.0328 C.2     1  UNL1        0.2231
     40 C          21.1767   77.3536   -1.6039 C.3     1  UNL1        0.0946
     41 N          20.5163   75.0337   -1.0573 N.am    1  UNL1       -0.2994
     42 O          22.5528   75.7522   -0.5502 O.2     1  UNL1       -0.2751
     43 H          19.6464   75.2238   -1.4422 H       1  UNL1        0.1496
     44 C          22.9616   70.1451    0.4492 C.3     1  UNL1        0.1693
     45 O          21.7317   69.4319    0.5950 O.3     1  UNL1       -0.3794
     46 H          21.8380   68.5237    0.9094 H       1  UNL1        0.2105
@<TRIPOS>BOND
     1    29    30    1
     2    30    41    1
     3    30    31    1
     4    31    34    1
     5    31    32    1
     6    32    35    1
     7    32    33    1
     8    33    36    1
     9    33    44    1
    10    39    40    1
    11    39    42    2
    12    39    41   am
    13    41    43    1
    14    29    28    1
    15    34    37    1
    16    35    38    1
    17    29    36    1
    18    44    45    1
    19    45    46    1
    20    15     6    1
    21    15    16   ar
    22    16    21    2
    23    16    17   ar
    24    17    23    1
    25    17    18   ar
    26    18    19   ar
    27    19    20   ar
    28    15    20   ar
    29    18    22    2
    30     6     7    1
    31     6    11    1
    32     7     9    1
    33     7     8    1
    34     8    13    1
    35     9    10    1
    36     9    12    1
    37    10     5    1
    38    10    11    1
    39    12    14    1
    40     5     4    1
    41     4     1    1
    42     1     2    1
    43     1    24    1
    44     1     3    2
    45    24    25    1
    46    28    25    1
    47    25    26    1
    48    25    27    2
@<TRIPOS>MOLECULE
UD2
 46 48 0 0 0
SMALL
GASTEIGER

@<TRIPOS>ATOM
      1 P          22.3402   71.3090   -2.6360 P.3     1  UNL1        0.2189
      2 O          21.0878   70.3052   -2.7593 O.3     1  UNL1       -0.4371
      3 O          23.5467   70.6651   -3.2006 O.2     1  UNL1       -0.5170
      4 O          22.0244   72.6631   -3.4485 O.3     1  UNL1       -0.3112
      5 C          22.9109   73.2059   -4.4288 C.3     1  UNL1        0.1811
      6 C          20.6399   73.6872   -7.1761 C.3     1  UNL1        0.2383
      7 C          19.7438   73.7544   -5.9134 C.3     1  UNL1        0.1895
      8 O          18.6288   74.6227   -6.1248 O.3     1  UNL1       -0.3779
      9 C          20.7115   74.3449   -4.8588 C.3     1  UNL1        0.1713
     10 C          22.1129   74.0492   -5.4264 C.3     1  UNL1        0.1764
     11 O          21.9335   73.3188   -6.6502 O.3     1  UNL1       -0.3308
     12 O          20.5104   75.7534   -4.7304 O.3     1  UNL1       -0.3794
     13 H          18.0381   74.6973   -5.3631 H       1  UNL1        0.2106
     14 H          19.6242   75.9994   -4.4326 H       1  UNL1        0.2105
     15 N          20.1492   72.6650   -8.1031 N.ar    1  UNL1       -0.2551
     16 C          19.3053   73.0114   -9.0913 C.ar    1  UNL1        0.3323
     17 N          18.8384   72.0927   -9.9575 N.ar    1  UNL1       -0.2743
     18 C          19.2146   70.8025   -9.8467 C.ar    1  UNL1        0.2626
     19 C          20.1032   70.4239   -8.8117 C.ar    1  UNL1        0.0795
     20 C          20.5589   71.3666   -7.9601 C.ar    1  UNL1        0.0869
     21 O          18.9578   74.1712   -9.2034 O.2     1  UNL1       -0.2464
     22 O          18.7930   69.9701  -10.6302 O.2     1  UNL1       -0.2670
     23 H          18.2297   72.3593  -10.6635 H       1  UNL1        0.1734
     24 O          22.5953   71.6614   -1.0855 O.3     1  UNL1       -0.2703
     25 P          22.5677   70.8014    0.2755 P.3     1  UNL1        0.2208
     26 O          21.2099   69.9373    0.3364 O.3     1  UNL1       -0.4371
     27 O          23.7330   69.8907    0.3077 O.2     1  UNL1       -0.5170
     28 O          22.6284   71.7962    1.5402 O.3     1  UNL1       -0.2865
     29 C          21.9299   73.0417    1.5851 C.3     1  UNL1        0.2611
     30 C          22.9246   74.1922    1.4133 C.3     1  UNL1        0.1582
     31 C          23.9189   74.1743    2.5784 C.3     1  UNL1        0.1625
     32 C          23.1458   74.2674    3.8967 C.3     1  UNL1        0.1686
     33 C          22.1423   73.1136    3.9728 C.3     1  UNL1        0.1760
     34 O          24.8065   75.2891    2.4655 O.3     1  UNL1       -0.3801
     35 O          22.4478   75.5127    3.9542 O.3     1  UNL1       -0.3794
     36 O          21.2671   73.1705    2.8447 O.3     1  UNL1       -0.3263
     37 H          25.4651   75.3400    3.1717 H       1  UNL1        0.2105
     38 H          21.9345   75.6396    4.7644 H       1  UNL1        0.2105
     39 C          23.9219   75.1050   -0.6140 C.2     1  UNL1        0.2231
     40 C          24.6657   74.9382   -1.9130 C.3     1  UNL1        0.0946
     41 N          23.6480   74.0290    0.1497 N.am    1  UNL1       -0.2994
     42 O          23.5688   76.2088   -0.2544 O.2     1  UNL1       -0.2751
     43 H          23.9292   73.1463   -0.1379 H       1  UNL1        0.1496
     44 C          21.3242   73.2337    5.2600 C.3     1  UNL1        0.1693
     45 O          22.1740   73.6587    6.3275 O.3     1  UNL1       -0.3794
     46 H          21.7212   73.7562    7.1763 H       1  UNL1        0.2105
@<TRIPOS>BOND
     1    29    30    1
     2    30    41    1
     3    30    31    1
     4    31    34    1
     5    31    32    1
     6    32    35    1
     7    32    33    1
     8    33    36    1
     9    33    44    1
    10    39    40    1
    11    39    42    2
    12    39    41   am
    13    41    43    1
    14    29    28    1
    15    34    37    1
    16    35    38    1
    17    29    36    1
    18    44    45    1
    19    45    46    1
    20    15     6    1
    21    15    16   ar
    22    16    21    2
    23    16    17   ar
    24    17    23    1
    25    17    18   ar
    26    18    19   ar
    27    19    20   ar
    28    15    20   ar
    29    18    22    2
    30     6     7    1
    31     6    11    1
    32     7     9    1
    33     7     8    1
    34     8    13    1
    35     9    10    1
    36     9    12    1
    37    10     5    1
    38    10    11    1
    39    12    14    1
    40     5     4    1
    41     4     1    1
    42     1     2    1
    43     1    24    1
    44     1     3    2
    45    24    25    1
    46    28    25    1
    47    25    26    1
    48    25    27    2
@<TRIPOS>MOLECULE
UD2
 46 48 0 0 0
SMALL
GASTEIGER

@<TRIPOS>ATOM
      1 P          22.9577   72.0774   -3.3223 P.3     1  UNL1        0.2189
      2 O          23.6368   70.6179   -3.3055 O.3     1  UNL1       -0.4371
      3 O          23.5631   72.8914   -4.3992 O.2     1  UNL1       -0.5170
      4 O          21.3757   71.9300   -3.5856 O.3     1  UNL1       -0.3112
      5 C          20.4067   71.9646   -2.5362 C.3     1  UNL1        0.1811
      6 C          18.1273   70.9523   -5.1278 C.3     1  UNL1        0.2383
      7 C          18.4592   69.6431   -4.3675 C.3     1  UNL1        0.1895
      8 O          17.3544   68.7377   -4.4045 O.3     1  UNL1       -0.3779
      9 C          18.7045   70.1566   -2.9275 C.3     1  UNL1        0.1713
     10 C          19.0224   71.6529   -3.1103 C.3     1  UNL1        0.1764
     11 O          19.0057   71.9246   -4.5208 O.3     1  UNL1       -0.3308
     12 O          17.5307   69.9879   -2.1309 O.3     1  UNL1       -0.3794
     13 H          17.5136   67.9034   -3.9427 H       1  UNL1        0.2106
     14 H          17.2506   69.0680   -2.0318 H       1  UNL1        0.2105
     15 N          18.4233   70.8091   -6.5550 N.ar    1  UNL1       -0.2551
     16 C          17.4243   70.5647   -7.4216 C.ar    1  UNL1        0.3323
     17 N          17.6673   70.4283   -8.7386 N.ar    1  UNL1       -0.2743
     18 C          18.9255   70.5375   -9.2114 C.ar    1  UNL1        0.2626
     19 C          19.9867   70.7956   -8.3106 C.ar    1  UNL1        0.0795
     20 C          19.7135   70.9320   -6.9960 C.ar    1  UNL1        0.0869
     21 O          16.2848   70.4640   -7.0094 O.2     1  UNL1       -0.2464
     22 O          19.1468   70.4146  -10.4033 O.2     1  UNL1       -0.2670
     23 H          16.9355   70.2511   -9.3495 H       1  UNL1        0.1734
     24 O          23.1999   72.7987   -1.9030 O.3     1  UNL1       -0.2703
     25 P          23.1500   74.3288   -1.4038 P.3     1  UNL1        0.2208
     26 O          24.5142   75.0745   -1.8240 O.3     1  UNL1       -0.4371
     27 O          21.9998   75.0155   -2.0312 O.2     1  UNL1       -0.5170
     28 O          22.9892   74.3656    0.1979 O.3     1  UNL1       -0.2865
     29 C          21.7411   74.1529    0.8600 C.3     1  UNL1        0.2611
     30 C          21.8906   74.4757    2.3487 C.3     1  UNL1        0.1582
     31 C          22.9150   73.5206    2.9691 C.3     1  UNL1        0.1625
     32 C          22.4614   72.0777    2.7307 C.3     1  UNL1        0.1686
     33 C          22.2900   71.8473    1.2269 C.3     1  UNL1        0.1760
     34 O          23.0068   73.7665    4.3742 O.3     1  UNL1       -0.3801
     35 O          21.2161   71.8528    3.3940 O.3     1  UNL1       -0.3794
     36 O          21.3478   72.7875    0.7069 O.3     1  UNL1       -0.3263
     37 H          23.6394   73.1963    4.8323 H       1  UNL1        0.2105
     38 H          20.8678   70.9568    3.2848 H       1  UNL1        0.2105
     39 C          21.9175   76.5989    3.5441 C.2     1  UNL1        0.2231
     40 C          22.3911   78.0195    3.7065 C.3     1  UNL1        0.0946
     41 N          22.3516   75.8575    2.5058 N.am    1  UNL1       -0.2994
     42 O          21.1446   76.1213    4.3483 O.2     1  UNL1       -0.2751
     43 H          22.9687   76.2393    1.8621 H       1  UNL1        0.1496
     44 C          21.7795   70.4257    0.9840 C.3     1  UNL1        0.1693
     45 O          22.8873   69.5556    0.7434 O.3     1  UNL1       -0.3794
     46 H          22.6376   68.6357    0.5809 H       1  UNL1        0.2105
@<TRIPOS>BOND
     1    29    30    1
     2    30    41    1
     3    30    31    1
     4    31    34    1
     5    31    32    1
     6    32    35    1
     7    32    33    1
     8    33    36    1
     9    33    44    1
    10    39    40    1
    11    39    42    2
    12    39    41   am
    13    41    43    1
    14    29    28    1
    15    34    37    1
    16    35    38    1
    17    29    36    1
    18    44    45    1
    19    45    46    1
    20    15     6    1
    21    15    16   ar
    22    16    21    2
    23    16    17   ar
    24    17    23    1
    25    17    18   ar
    26    18    19   ar
    27    19    20   ar
    28    15    20   ar
    29    18    22    2
    30     6     7    1
    31     6    11    1
    32     7     9    1
    33     7     8    1
    34     8    13    1
    35     9    10    1
    36     9    12    1
    37    10     5    1
    38    10    11    1
    39    12    14    1
    40     5     4    1
    41     4     1    1
    42     1     2    1
    43     1    24    1
    44     1     3    2
    45    24    25    1
    46    28    25    1
    47    25    26    1
    48    25    27    2
@<TRIPOS>MOLECULE
UD2
 46 48 0 0 0
SMALL
GASTEIGER

@<TRIPOS>ATOM
      1 P          22.8370   72.1039   -3.2123 P.3     1  UNL1        0.2189
      2 O          23.5047   70.6396   -3.1746 O.3     1  UNL1       -0.4371
      3 O          23.4917   72.9185   -4.2595 O.2     1  UNL1       -0.5170
      4 O          21.2662   71.9690   -3.5410 O.3     1  UNL1       -0.3112
      5 C          20.2506   72.0820   -2.5424 C.3     1  UNL1        0.1811
      6 C          17.9844   71.3936   -5.2492 C.3     1  UNL1        0.2383
      7 C          17.9732   70.1015   -4.3933 C.3     1  UNL1        0.1895
      8 O          16.7034   69.4506   -4.4691 O.3     1  UNL1       -0.3779
      9 C          18.2272   70.6527   -2.9689 C.3     1  UNL1        0.1713
     10 C          18.8732   72.0307   -3.2080 C.3     1  UNL1        0.1764
     11 O          19.0101   72.1984   -4.6281 O.3     1  UNL1       -0.3308
     12 O          16.9941   70.7939   -2.2614 O.3     1  UNL1       -0.3794
     13 H          16.6468   68.6366   -3.9505 H       1  UNL1        0.2106
     14 H          16.5154   69.9638   -2.1344 H       1  UNL1        0.2105
     15 N          18.3371   71.0894   -6.6378 N.ar    1  UNL1       -0.2551
     16 C          17.3657   70.8224   -7.5289 C.ar    1  UNL1        0.3323
     17 N          17.6609   70.5394   -8.8115 N.ar    1  UNL1       -0.2743
     18 C          18.9445   70.5213   -9.2245 C.ar    1  UNL1        0.2626
     19 C          19.9770   70.8015   -8.2974 C.ar    1  UNL1        0.0795
     20 C          19.6520   71.0861   -7.0188 C.ar    1  UNL1        0.0869
     21 O          16.2039   70.8354   -7.1705 O.2     1  UNL1       -0.2464
     22 O          19.2129   70.2657  -10.3851 O.2     1  UNL1       -0.2670
     23 H          16.9484   70.3480   -9.4406 H       1  UNL1        0.1734
     24 O          23.0256   72.8171   -1.7808 O.3     1  UNL1       -0.2703
     25 P          23.0283   74.3498   -1.2872 P.3     1  UNL1        0.2208
     26 O          24.4990   74.9749   -1.4870 O.3     1  UNL1       -0.4371
     27 O          22.0510   75.1259   -2.0816 O.2     1  UNL1       -0.5170
     28 O          22.6251   74.4126    0.2704 O.3     1  UNL1       -0.2865
     29 C          23.3665   73.7463    1.2939 C.3     1  UNL1        0.2611
     30 C          22.5033   72.6467    1.9170 C.3     1  UNL1        0.1582
     31 C          21.2746   73.2842    2.5729 C.3     1  UNL1        0.1625
     32 C          21.7378   74.3143    3.6067 C.3     1  UNL1        0.1686
     33 C          22.6307   75.3500    2.9183 C.3     1  UNL1        0.1760
     34 O          20.5005   72.2722    3.2208 O.3     1  UNL1       -0.3801
     35 O          22.4759   73.6569    4.6384 O.3     1  UNL1       -0.3794
     36 O          23.7376   74.6882    2.3026 O.3     1  UNL1       -0.3263
     37 H          19.7048   72.6056    3.6578 H       1  UNL1        0.2105
     38 H          22.8018   74.2507    5.3292 H       1  UNL1        0.2105
     39 C          22.5030   70.4360    0.8920 C.2     1  UNL1        0.2231
     40 C          22.0602   69.4752   -0.1801 C.3     1  UNL1        0.0946
     41 N          22.0723   71.7128    0.8737 N.am    1  UNL1       -0.2994
     42 O          23.2482   70.0607    1.7730 O.2     1  UNL1       -0.2751
     43 H          21.4773   72.0135    0.1690 H       1  UNL1        0.1496
     44 C          23.1462   76.3489    3.9560 C.3     1  UNL1        0.1693
     45 O          22.1926   76.4736    5.0130 O.3     1  UNL1       -0.3794
     46 H          22.4541   77.0924    5.7085 H       1  UNL1        0.2105
@<TRIPOS>BOND
     1    29    30    1
     2    30    41    1
     3    30    31    1
     4    31    34    1
     5    31    32    1
     6    32    35    1
     7    32    33    1
     8    33    36    1
     9    33    44    1
    10    39    40    1
    11    39    42    2
    12    39    41   am
    13    41    43    1
    14    29    28    1
    15    34    37    1
    16    35    38    1
    17    29    36    1
    18    44    45    1
    19    45    46    1
    20    15     6    1
    21    15    16   ar
    22    16    21    2
    23    16    17   ar
    24    17    23    1
    25    17    18   ar
    26    18    19   ar
    27    19    20   ar
    28    15    20   ar
    29    18    22    2
    30     6     7    1
    31     6    11    1
    32     7     9    1
    33     7     8    1
    34     8    13    1
    35     9    10    1
    36     9    12    1
    37    10     5    1
    38    10    11    1
    39    12    14    1
    40     5     4    1
    41     4     1    1
    42     1     2    1
    43     1    24    1
    44     1     3    2
    45    24    25    1
    46    28    25    1
    47    25    26    1
    48    25    27    2
@<TRIPOS>MOLECULE
UD2
 46 48 0 0 0
SMALL
GASTEIGER

@<TRIPOS>ATOM
      1 P          21.9628   70.5847   -0.2747 P.3     1  UNL1        0.2189
      2 O          21.9256   69.1883    0.5252 O.3     1  UNL1       -0.4371
      3 O          23.2203   70.6772   -1.0487 O.2     1  UNL1       -0.5170
      4 O          20.7069   70.6607   -1.2800 O.3     1  UNL1       -0.3112
      5 C          20.8082   71.1640   -2.6134 C.3     1  UNL1        0.1811
      6 C          18.2933   71.1287   -5.1846 C.3     1  UNL1        0.2383
      7 C          18.1066   69.7832   -4.4383 C.3     1  UNL1        0.1895
      8 O          16.7396   69.3684   -4.4688 O.3     1  UNL1       -0.3779
      9 C          18.5415   70.1472   -2.9976 C.3     1  UNL1        0.1713
     10 C          19.4050   71.4110   -3.1729 C.3     1  UNL1        0.1764
     11 O          19.4814   71.6850   -4.5809 O.3     1  UNL1       -0.3308
     12 O          17.3989   70.4299   -2.1880 O.3     1  UNL1       -0.3794
     13 H          16.5721   68.5312   -4.0153 H       1  UNL1        0.2106
     14 H          16.7897   69.6855   -2.0925 H       1  UNL1        0.2105
     15 N          18.5002   70.9001   -6.6163 N.ar    1  UNL1       -0.2551
     16 C          17.4379   70.7765   -7.4318 C.ar    1  UNL1        0.3323
     17 N          17.5985   70.5657   -8.7517 N.ar    1  UNL1       -0.2743
     18 C          18.8365   70.4767   -9.2791 C.ar    1  UNL1        0.2626
     19 C          19.9637   70.6059   -8.4324 C.ar    1  UNL1        0.0795
     20 C          19.7732   70.8210   -7.1137 C.ar    1  UNL1        0.0869
     21 O          16.3158   70.8548   -6.9701 O.2     1  UNL1       -0.2464
     22 O          18.9832   70.2863  -10.4735 O.2     1  UNL1       -0.2670
     23 H          16.8217   70.4777   -9.3253 H       1  UNL1        0.1734
     24 O          21.8857   71.8057    0.7725 O.3     1  UNL1       -0.2703
     25 P          21.4452   73.3503    0.6582 P.3     1  UNL1        0.2208
     26 O          22.5585   74.1652   -0.1726 O.3     1  UNL1       -0.4371
     27 O          20.1443   73.4422   -0.0399 O.2     1  UNL1       -0.5170
     28 O          21.3086   73.9799    2.1339 O.3     1  UNL1       -0.2865
     29 C          21.3678   73.1926    3.3247 C.3     1  UNL1        0.2611
     30 C          20.4929   73.8331    4.4050 C.3     1  UNL1        0.1582
     31 C          21.0440   75.2229    4.7384 C.3     1  UNL1        0.1625
     32 C          22.5045   75.0892    5.1781 C.3     1  UNL1        0.1686
     33 C          23.3020   74.4002    4.0676 C.3     1  UNL1        0.1760
     34 O          20.2769   75.7987    5.7984 O.3     1  UNL1       -0.3801
     35 O          22.5743   74.3079    6.3722 O.3     1  UNL1       -0.3794
     36 O          22.7192   73.1265    3.7848 O.3     1  UNL1       -0.3263
     37 H          20.5707   76.6817    6.0611 H       1  UNL1        0.2105
     38 H          23.4726   74.1814    6.7083 H       1  UNL1        0.2105
     39 C          18.7286   75.0793    3.2774 C.2     1  UNL1        0.2231
     40 C          17.3161   75.2069    2.7703 C.3     1  UNL1        0.0946
     41 N          19.1187   73.9565    3.9122 N.am    1  UNL1       -0.2994
     42 O          19.5161   75.9879    3.1145 O.2     1  UNL1       -0.2751
     43 H          18.4892   73.2302    4.0435 H       1  UNL1        0.1496
     44 C          24.7499   74.2090    4.5232 C.3     1  UNL1        0.1693
     45 O          25.1324   75.2977    5.3663 O.3     1  UNL1       -0.3794
     46 H          26.0408   75.2425    5.6931 H       1  UNL1        0.2105
@<TRIPOS>BOND
     1    29    30    1
     2    30    41    1
     3    30    31    1
     4    31    34    1
     5    31    32    1
     6    32    35    1
     7    32    33    1
     8    33    36    1
     9    33    44    1
    10    39    40    1
    11    39    42    2
    12    39    41   am
    13    41    43    1
    14    29    28    1
    15    34    37    1
    16    35    38    1
    17    29    36    1
    18    44    45    1
    19    45    46    1
    20    15     6    1
    21    15    16   ar
    22    16    21    2
    23    16    17   ar
    24    17    23    1
    25    17    18   ar
    26    18    19   ar
    27    19    20   ar
    28    15    20   ar
    29    18    22    2
    30     6     7    1
    31     6    11    1
    32     7     9    1
    33     7     8    1
    34     8    13    1
    35     9    10    1
    36     9    12    1
    37    10     5    1
    38    10    11    1
    39    12    14    1
    40     5     4    1
    41     4     1    1
    42     1     2    1
    43     1    24    1
    44     1     3    2
    45    24    25    1
    46    28    25    1
    47    25    26    1
    48    25    27    2
@<TRIPOS>MOLECULE
UD2
 46 48 0 0 0
SMALL
GASTEIGER

@<TRIPOS>ATOM
      1 P          23.0383   72.0895   -3.0244 P.3     1  UNL1        0.2189
      2 O          23.3863   72.5672   -1.5271 O.3     1  UNL1       -0.4371
      3 O          23.4693   70.6861   -3.2079 O.2     1  UNL1       -0.5170
      4 O          21.4499   72.1992   -3.2670 O.3     1  UNL1       -0.3112
      5 C          20.5091   71.3045   -2.6706 C.3     1  UNL1        0.1811
      6 C          18.1238   71.1597   -5.3588 C.3     1  UNL1        0.2383
      7 C          17.9172   69.8342   -4.5826 C.3     1  UNL1        0.1895
      8 O          16.5584   69.4002   -4.6671 O.3     1  UNL1       -0.3779
      9 C          18.2765   70.2461   -3.1339 C.3     1  UNL1        0.1713
     10 C          19.1321   71.5159   -3.3048 C.3     1  UNL1        0.1764
     11 O          19.2741   71.7496   -4.7150 O.3     1  UNL1       -0.3308
     12 O          17.0922   70.5368   -2.3897 O.3     1  UNL1       -0.3794
     13 H          16.3791   68.5743   -4.1975 H       1  UNL1        0.2106
     14 H          16.4882   69.7873   -2.3017 H       1  UNL1        0.2105
     15 N          18.4034   70.8921   -6.7713 N.ar    1  UNL1       -0.2551
     16 C          17.3840   70.7351   -7.6344 C.ar    1  UNL1        0.3323
     17 N          17.6116   70.4881   -8.9380 N.ar    1  UNL1       -0.2743
     18 C          18.8749   70.3957   -9.4008 C.ar    1  UNL1        0.2626
     19 C          19.9576   70.5599   -8.5036 C.ar    1  UNL1        0.0795
     20 C          19.7001   70.8108   -7.2027 C.ar    1  UNL1        0.0869
     21 O          16.2398   70.8160   -7.2311 O.2     1  UNL1       -0.2464
     22 O          19.0823   70.1726  -10.5805 O.2     1  UNL1       -0.2670
     23 H          16.8650   70.3764   -9.5464 H       1  UNL1        0.1734
     24 O          23.8080   73.0302   -4.0807 O.3     1  UNL1       -0.2703
     25 P          23.8165   74.6147   -4.3676 P.3     1  UNL1        0.2208
     26 O          22.9301   75.3662   -3.2526 O.3     1  UNL1       -0.4371
     27 O          25.2063   75.1186   -4.3140 O.2     1  UNL1       -0.5170
     28 O          23.1980   74.8991   -5.8268 O.3     1  UNL1       -0.2865
     29 C          23.4049   76.1226   -6.5350 C.3     1  UNL1        0.2611
     30 C          22.0589   76.6659   -7.0208 C.3     1  UNL1        0.1582
     31 C          21.4356   75.6633   -7.9968 C.3     1  UNL1        0.1625
     32 C          22.4118   75.4153   -9.1500 C.3     1  UNL1        0.1686
     33 C          23.7444   74.9200   -8.5820 C.3     1  UNL1        0.1760
     34 O          20.2131   76.1957   -8.5120 O.3     1  UNL1       -0.3801
     35 O          22.6211   76.6323   -9.8686 O.3     1  UNL1       -0.3794
     36 O          24.2547   75.8841   -7.6589 O.3     1  UNL1       -0.3263
     37 H          19.7629   75.6115   -9.1374 H       1  UNL1        0.2105
     38 H          23.2313   76.5492  -10.6149 H       1  UNL1        0.2105
     39 C          20.3884   77.9533   -5.8002 C.2     1  UNL1        0.2231
     40 C          19.4692   78.1479   -4.6230 C.3     1  UNL1        0.0946
     41 N          21.1652   76.8546   -5.8753 N.am    1  UNL1       -0.2994
     42 O          20.4300   78.7859   -6.6818 O.2     1  UNL1       -0.2751
     43 H          21.1330   76.1891   -5.1702 H       1  UNL1        0.1496
     44 C          24.7447   74.7268   -9.7232 C.3     1  UNL1        0.1693
     45 O          25.4776   75.9369   -9.9253 O.3     1  UNL1       -0.3794
     46 H          26.1317   75.8873  -10.6357 H       1  UNL1        0.2105
@<TRIPOS>BOND
     1    29    30    1
     2    30    41    1
     3    30    31    1
     4    31    34    1
     5    31    32    1
     6    32    35    1
     7    32    33    1
     8    33    36    1
     9    33    44    1
    10    39    40    1
    11    39    42    2
    12    39    41   am
    13    41    43    1
    14    29    28    1
    15    34    37    1
    16    35    38    1
    17    29    36    1
    18    44    45    1
    19    45    46    1
    20    15     6    1
    21    15    16   ar
    22    16    21    2
    23    16    17   ar
    24    17    23    1
    25    17    18   ar
    26    18    19   ar
    27    19    20   ar
    28    15    20   ar
    29    18    22    2
    30     6     7    1
    31     6    11    1
    32     7     9    1
    33     7     8    1
    34     8    13    1
    35     9    10    1
    36     9    12    1
    37    10     5    1
    38    10    11    1
    39    12    14    1
    40     5     4    1
    41     4     1    1
    42     1     2    1
    43     1    24    1
    44     1     3    2
    45    24    25    1
    46    28    25    1
    47    25    26    1
    48    25    27    2
@<TRIPOS>MOLECULE
UD2
 46 48 0 0 0
SMALL
GASTEIGER

@<TRIPOS>ATOM
      1 P          22.6720   71.3837   -2.3410 P.3     1  UNL1        0.2189
      2 O          22.9049   70.9490   -0.8086 O.3     1  UNL1       -0.4371
      3 O          23.4275   70.4761   -3.2322 O.2     1  UNL1       -0.5170
      4 O          21.1024   71.2957   -2.6909 O.3     1  UNL1       -0.3112
      5 C          20.2478   72.4403   -2.7219 C.3     1  UNL1        0.1811
      6 C          18.0425   71.1756   -5.2663 C.3     1  UNL1        0.2383
      7 C          18.4072   69.9335   -4.4142 C.3     1  UNL1        0.1895
      8 O          17.3344   68.9897   -4.4029 O.3     1  UNL1       -0.3779
      9 C          18.6138   70.5518   -3.0097 C.3     1  UNL1        0.1713
     10 C          18.8834   72.0424   -3.2905 C.3     1  UNL1        0.1764
     11 O          18.8784   72.2170   -4.7163 O.3     1  UNL1       -0.3308
     12 O          17.4347   70.3968   -2.2181 O.3     1  UNL1       -0.3794
     13 H          17.5150   68.1948   -3.8832 H       1  UNL1        0.2106
     14 H          17.1845   69.4765   -2.0598 H       1  UNL1        0.2105
     15 N          18.3642   70.9462   -6.6766 N.ar    1  UNL1       -0.2551
     16 C          17.3957   70.5625   -7.5272 C.ar    1  UNL1        0.3323
     17 N          17.6629   70.3443   -8.8284 N.ar    1  UNL1       -0.2743
     18 C          18.9147   70.5106   -9.3014 C.ar    1  UNL1        0.2626
     19 C          19.9438   70.9153   -8.4174 C.ar    1  UNL1        0.0795
     20 C          19.6466   71.1310   -7.1187 C.ar    1  UNL1        0.0869
     21 O          16.2623   70.4088   -7.1146 O.2     1  UNL1       -0.2464
     22 O          19.1578   70.3139  -10.4790 O.2     1  UNL1       -0.2670
     23 H          16.9530   70.0668   -9.4278 H       1  UNL1        0.1734
     24 O          23.1847   72.8953   -2.5542 O.3     1  UNL1       -0.2703
     25 P          23.4782   73.8037   -3.8510 P.3     1  UNL1        0.2208
     26 O          25.0403   74.1937   -3.8900 O.3     1  UNL1       -0.4371
     27 O          23.1287   73.0470   -5.0731 O.2     1  UNL1       -0.5170
     28 O          22.5913   75.1456   -3.7781 O.3     1  UNL1       -0.2865
     29 C          22.8938   76.2319   -2.9008 C.3     1  UNL1        0.2611
     30 C          24.4076   76.3122   -2.6897 C.3     1  UNL1        0.1582
     31 C          24.8897   75.0232   -2.0170 C.3     1  UNL1        0.1625
     32 C          24.1295   74.8312   -0.7019 C.3     1  UNL1        0.1686
     33 C          22.6260   74.8080   -0.9898 C.3     1  UNL1        0.1760
     34 O          26.2905   75.1197   -1.7493 O.3     1  UNL1       -0.3801
     35 O          24.4298   75.9101    0.1853 O.3     1  UNL1       -0.3794
     36 O          22.2489   76.0217   -1.6429 O.3     1  UNL1       -0.3263
     37 H          26.6640   74.3359   -1.3235 H       1  UNL1        0.2105
     38 H          23.9807   75.8538    1.0403 H       1  UNL1        0.2105
     39 C          26.0974   77.3355   -4.1162 C.2     1  UNL1        0.2231
     40 C          26.7840   77.4959   -5.4472 C.3     1  UNL1        0.0946
     41 N          25.0747   76.4678   -3.9847 N.am    1  UNL1       -0.2994
     42 O          26.4650   77.9878   -3.1614 O.2     1  UNL1       -0.2751
     43 H          24.7799   75.9468   -4.7481 H       1  UNL1        0.1496
     44 C          21.8570   74.6763    0.3262 C.3     1  UNL1        0.1693
     45 O          21.4180   73.3261    0.4892 O.3     1  UNL1       -0.3794
     46 H          20.9221   73.1689    1.3043 H       1  UNL1        0.2105
@<TRIPOS>BOND
     1    29    30    1
     2    30    41    1
     3    30    31    1
     4    31    34    1
     5    31    32    1
     6    32    35    1
     7    32    33    1
     8    33    36    1
     9    33    44    1
    10    39    40    1
    11    39    42    2
    12    39    41   am
    13    41    43    1
    14    29    28    1
    15    34    37    1
    16    35    38    1
    17    29    36    1
    18    44    45    1
    19    45    46    1
    20    15     6    1
    21    15    16   ar
    22    16    21    2
    23    16    17   ar
    24    17    23    1
    25    17    18   ar
    26    18    19   ar
    27    19    20   ar
    28    15    20   ar
    29    18    22    2
    30     6     7    1
    31     6    11    1
    32     7     9    1
    33     7     8    1
    34     8    13    1
    35     9    10    1
    36     9    12    1
    37    10     5    1
    38    10    11    1
    39    12    14    1
    40     5     4    1
    41     4     1    1
    42     1     2    1
    43     1    24    1
    44     1     3    2
    45    24    25    1
    46    28    25    1
    47    25    26    1
    48    25    27    2
@<TRIPOS>MOLECULE
UD2
 46 48 0 0 0
SMALL
GASTEIGER

@<TRIPOS>ATOM
      1 P          22.0780   71.0722   -2.9225 P.3     1  UNL1        0.2189
      2 O          23.5883   70.7093   -3.3453 O.3     1  UNL1       -0.4371
      3 O          21.1656   70.0022   -3.3826 O.2     1  UNL1       -0.5170
      4 O          21.9863   71.2033   -1.3200 O.3     1  UNL1       -0.3112
      5 C          20.8798   71.8124   -0.6521 C.3     1  UNL1        0.1811
      6 C          21.5107   74.4148    1.7492 C.3     1  UNL1        0.2383
      7 C          22.8993   73.7758    1.4932 C.3     1  UNL1        0.1895
      8 O          23.9409   74.7425    1.6423 O.3     1  UNL1       -0.3779
      9 C          22.7791   73.3160    0.0196 C.3     1  UNL1        0.1713
     10 C          21.2605   73.2325   -0.2261 C.3     1  UNL1        0.1764
     11 O          20.6082   73.5633    1.0102 O.3     1  UNL1       -0.3308
     12 O          23.3753   74.2772   -0.8530 O.3     1  UNL1       -0.3794
     13 H          24.8288   74.3905    1.4927 H       1  UNL1        0.2106
     14 H          24.3204   74.4135   -0.7023 H       1  UNL1        0.2105
     15 N          21.1880   74.3927    3.1776 N.ar    1  UNL1       -0.2551
     16 C          20.9298   73.2206    3.7844 C.ar    1  UNL1        0.3323
     17 N          20.6302   73.1705    5.0959 N.ar    1  UNL1       -0.2743
     18 C          20.5865   74.3036    5.8258 C.ar    1  UNL1        0.2626
     19 C          20.8572   75.5444    5.2002 C.ar    1  UNL1        0.0795
     20 C          21.1588   75.5645    3.8848 C.ar    1  UNL1        0.0869
     21 O          20.9658   72.1909    3.1387 O.2     1  UNL1       -0.2464
     22 O          20.3159   74.2597    7.0129 O.2     1  UNL1       -0.2670
     23 H          20.4455   72.3171    5.5174 H       1  UNL1        0.1734
     24 O          21.6517   72.4696   -3.5998 O.3     1  UNL1       -0.2703
     25 P          21.4219   72.9513   -5.1191 P.3     1  UNL1        0.2208
     26 O          21.0794   74.5248   -5.1366 O.3     1  UNL1       -0.4371
     27 O          22.6502   72.7056   -5.9060 O.2     1  UNL1       -0.5170
     28 O          20.1974   72.1279   -5.7636 O.3     1  UNL1       -0.2865
     29 C          19.0242   72.7567   -6.2827 C.3     1  UNL1        0.2611
     30 C          17.7847   71.9857   -5.8225 C.3     1  UNL1        0.1582
     31 C          17.8393   70.5634   -6.3886 C.3     1  UNL1        0.1625
     32 C          17.9440   70.6365   -7.9144 C.3     1  UNL1        0.1686
     33 C          19.1778   71.4596   -8.2941 C.3     1  UNL1        0.1760
     34 O          16.6499   69.8589   -6.0247 O.3     1  UNL1       -0.3801
     35 O          16.7723   71.2589   -8.4443 O.3     1  UNL1       -0.3794
     36 O          19.0785   72.7604   -7.7108 O.3     1  UNL1       -0.3263
     37 H          16.6172   68.9489   -6.3501 H       1  UNL1        0.2105
     38 H          16.7706   71.3394   -9.4084 H       1  UNL1        0.2105
     39 C          16.5895   72.0493   -3.6999 C.2     1  UNL1        0.2231
     40 C          16.5623   71.9913   -2.1951 C.3     1  UNL1        0.0946
     41 N          17.7590   71.9294   -4.3587 N.am    1  UNL1       -0.2994
     42 O          15.5581   72.2040   -4.3199 O.2     1  UNL1       -0.2751
     43 H          18.5840   71.8067   -3.8633 H       1  UNL1        0.1496
     44 C          19.2563   71.5877   -9.8166 C.3     1  UNL1        0.1693
     45 O          18.7088   70.4151  -10.4228 O.3     1  UNL1       -0.3794
     46 H          18.7259   70.4269  -11.3896 H       1  UNL1        0.2105
@<TRIPOS>BOND
     1    29    30    1
     2    30    41    1
     3    30    31    1
     4    31    34    1
     5    31    32    1
     6    32    35    1
     7    32    33    1
     8    33    36    1
     9    33    44    1
    10    39    40    1
    11    39    42    2
    12    39    41   am
    13    41    43    1
    14    29    28    1
    15    34    37    1
    16    35    38    1
    17    29    36    1
    18    44    45    1
    19    45    46    1
    20    15     6    1
    21    15    16   ar
    22    16    21    2
    23    16    17   ar
    24    17    23    1
    25    17    18   ar
    26    18    19   ar
    27    19    20   ar
    28    15    20   ar
    29    18    22    2
    30     6     7    1
    31     6    11    1
    32     7     9    1
    33     7     8    1
    34     8    13    1
    35     9    10    1
    36     9    12    1
    37    10     5    1
    38    10    11    1
    39    12    14    1
    40     5     4    1
    41     4     1    1
    42     1     2    1
    43     1    24    1
    44     1     3    2
    45    24    25    1
    46    28    25    1
    47    25    26    1
    48    25    27    2
@<TRIPOS>MOLECULE
UD2
 46 48 0 0 0
SMALL
GASTEIGER

@<TRIPOS>ATOM
      1 P          22.1606   70.6763   -0.2712 P.3     1  UNL1        0.2189
      2 O          21.8754   69.2716    0.4615 O.3     1  UNL1       -0.4371
      3 O          23.2155   70.4954   -1.2926 O.2     1  UNL1       -0.5170
      4 O          20.8108   71.1956   -0.9798 O.3     1  UNL1       -0.3112
      5 C          20.7399   71.5280   -2.3675 C.3     1  UNL1        0.1811
      6 C          18.3470   70.7327   -4.9323 C.3     1  UNL1        0.2383
      7 C          18.7917   69.3569   -4.3740 C.3     1  UNL1        0.1895
      8 O          17.7323   68.4025   -4.4663 O.3     1  UNL1       -0.3779
      9 C          19.1059   69.6921   -2.8954 C.3     1  UNL1        0.1713
     10 C          19.3377   71.2152   -2.8956 C.3     1  UNL1        0.1764
     11 O          19.2150   71.6664   -4.2538 O.3     1  UNL1       -0.3308
     12 O          17.9968   69.3546   -2.0608 O.3     1  UNL1       -0.3794
     13 H          17.9621   67.5257   -4.1300 H       1  UNL1        0.2106
     14 H          17.7690   68.4152   -2.0688 H       1  UNL1        0.2105
     15 N          18.5551   70.7933   -6.3808 N.ar    1  UNL1       -0.2551
     16 C          17.5400   70.4995   -7.2127 C.ar    1  UNL1        0.3323
     17 N          17.7029   70.5467   -8.5481 N.ar    1  UNL1       -0.2743
     18 C          18.8949   70.8938   -9.0746 C.ar    1  UNL1        0.2626
     19 C          19.9719   71.2065   -8.2106 C.ar    1  UNL1        0.0795
     20 C          19.7791   71.1550   -6.8758 C.ar    1  UNL1        0.0869
     21 O          16.4596   70.1852   -6.7519 O.2     1  UNL1       -0.2464
     22 O          19.0435   70.9373  -10.2832 O.2     1  UNL1       -0.2670
     23 H          16.9608   70.3307   -9.1337 H       1  UNL1        0.1734
     24 O          22.6463   71.7603    0.8162 O.3     1  UNL1       -0.2703
     25 P          21.8797   72.7178    1.8596 P.3     1  UNL1        0.2208
     26 O          20.9826   73.7828    1.0506 O.3     1  UNL1       -0.4371
     27 O          21.0077   71.9001    2.7310 O.2     1  UNL1       -0.5170
     28 O          22.9591   73.5005    2.7624 O.3     1  UNL1       -0.2865
     29 C          22.8353   74.8833    3.0999 C.3     1  UNL1        0.2611
     30 C          24.2083   75.4410    3.4824 C.3     1  UNL1        0.1582
     31 C          24.7218   74.7036    4.7230 C.3     1  UNL1        0.1625
     32 C          23.6991   74.8536    5.8526 C.3     1  UNL1        0.1686
     33 C          22.3453   74.3183    5.3785 C.3     1  UNL1        0.1760
     34 O          25.9702   75.2679    5.1310 O.3     1  UNL1       -0.3801
     35 O          23.5720   76.2332    6.2018 O.3     1  UNL1       -0.3794
     36 O          21.9400   75.0252    4.2047 O.3     1  UNL1       -0.3263
     37 H          26.3546   74.8477    5.9125 H       1  UNL1        0.2105
     38 H          22.9381   76.4029    6.9126 H       1  UNL1        0.2105
     39 C          26.0222   76.2118    2.0494 C.2     1  UNL1        0.2231
     40 C          26.9844   76.0082    0.9087 C.3     1  UNL1        0.0946
     41 N          25.1438   75.2422    2.3725 N.am    1  UNL1       -0.2994
     42 O          26.0375   77.2494    2.6782 O.2     1  UNL1       -0.2751
     43 H          25.1305   74.4129    1.8694 H       1  UNL1        0.1496
     44 C          21.3034   74.5192    6.4806 C.3     1  UNL1        0.1693
     45 O          21.8737   74.1745    7.7448 O.3     1  UNL1       -0.3794
     46 H          21.2680   74.2779    8.4915 H       1  UNL1        0.2105
@<TRIPOS>BOND
     1    29    30    1
     2    30    41    1
     3    30    31    1
     4    31    34    1
     5    31    32    1
     6    32    35    1
     7    32    33    1
     8    33    36    1
     9    33    44    1
    10    39    40    1
    11    39    42    2
    12    39    41   am
    13    41    43    1
    14    29    28    1
    15    34    37    1
    16    35    38    1
    17    29    36    1
    18    44    45    1
    19    45    46    1
    20    15     6    1
    21    15    16   ar
    22    16    21    2
    23    16    17   ar
    24    17    23    1
    25    17    18   ar
    26    18    19   ar
    27    19    20   ar
    28    15    20   ar
    29    18    22    2
    30     6     7    1
    31     6    11    1
    32     7     9    1
    33     7     8    1
    34     8    13    1
    35     9    10    1
    36     9    12    1
    37    10     5    1
    38    10    11    1
    39    12    14    1
    40     5     4    1
    41     4     1    1
    42     1     2    1
    43     1    24    1
    44     1     3    2
    45    24    25    1
    46    28    25    1
    47    25    26    1
    48    25    27    2
@<TRIPOS>MOLECULE
UD2
 46 48 0 0 0
SMALL
GASTEIGER

@<TRIPOS>ATOM
      1 P          22.7633   71.8507   -3.1842 P.3     1  UNL1        0.2189
      2 O          23.0014   72.5086   -1.7345 O.3     1  UNL1       -0.4371
      3 O          23.4457   70.5396   -3.2499 O.2     1  UNL1       -0.5170
      4 O          21.1844   71.6469   -3.4281 O.3     1  UNL1       -0.3112
      5 C          20.1887   72.1552   -2.5384 C.3     1  UNL1        0.1811
      6 C          17.9487   71.4048   -5.2506 C.3     1  UNL1        0.2383
      7 C          17.9496   70.1227   -4.3798 C.3     1  UNL1        0.1895
      8 O          16.6893   69.4537   -4.4556 O.3     1  UNL1       -0.3779
      9 C          18.1874   70.6937   -2.9603 C.3     1  UNL1        0.1713
     10 C          18.8162   72.0775   -3.2116 C.3     1  UNL1        0.1764
     11 O          18.9595   72.2307   -4.6327 O.3     1  UNL1       -0.3308
     12 O          16.9482   70.8263   -2.2619 O.3     1  UNL1       -0.3794
     13 H          16.6405   68.6451   -3.9279 H       1  UNL1        0.2106
     14 H          16.4800   69.9912   -2.1282 H       1  UNL1        0.2105
     15 N          18.3139   71.0894   -6.6334 N.ar    1  UNL1       -0.2551
     16 C          17.3509   70.8116   -7.5302 C.ar    1  UNL1        0.3323
     17 N          17.6577   70.5182   -8.8077 N.ar    1  UNL1       -0.2743
     18 C          18.9448   70.5003   -9.2097 C.ar    1  UNL1        0.2626
     19 C          19.9686   70.7918   -8.2765 C.ar    1  UNL1        0.0795
     20 C          19.6320   71.0868   -7.0032 C.ar    1  UNL1        0.0869
     21 O          16.1861   70.8243   -7.1818 O.2     1  UNL1       -0.2464
     22 O          19.2237   70.2353  -10.3658 O.2     1  UNL1       -0.2670
     23 H          16.9511   70.3191   -9.4411 H       1  UNL1        0.1734
     24 O          23.3597   72.8240   -4.3201 O.3     1  UNL1       -0.2703
     25 P          23.1012   74.3614   -4.7233 P.3     1  UNL1        0.2208
     26 O          22.7321   74.4504   -6.2885 O.3     1  UNL1       -0.4371
     27 O          21.9808   74.9003   -3.9216 O.2     1  UNL1       -0.5170
     28 O          24.4308   75.2226   -4.4353 O.3     1  UNL1       -0.2865
     29 C          25.4482   74.8026   -3.5243 C.3     1  UNL1        0.2611
     30 C          25.5740   75.8245   -2.3918 C.3     1  UNL1        0.1582
     31 C          26.0025   77.1732   -2.9780 C.3     1  UNL1        0.1625
     32 C          27.3158   76.9908   -3.7437 C.3     1  UNL1        0.1686
     33 C          27.1228   75.9237   -4.8244 C.3     1  UNL1        0.1760
     34 O          26.1937   78.1145   -1.9194 O.3     1  UNL1       -0.3801
     35 O          28.3419   76.5760   -2.8401 O.3     1  UNL1       -0.3794
     36 O          26.6949   74.7036   -4.2159 O.3     1  UNL1       -0.3263
     37 H          26.4659   78.9928   -2.2190 H       1  UNL1        0.2105
     38 H          29.2038   76.4402   -3.2582 H       1  UNL1        0.2105
     39 C          24.1406   75.5866   -0.4357 C.2     1  UNL1        0.2231
     40 C          22.8113   75.7377    0.2563 C.3     1  UNL1        0.0946
     41 N          24.2805   75.9715   -1.7196 N.am    1  UNL1       -0.2994
     42 O          25.0863   75.1181    0.1628 O.2     1  UNL1       -0.2751
     43 H          23.5244   76.3453   -2.1987 H       1  UNL1        0.1496
     44 C          28.4470   75.6926   -5.5549 C.3     1  UNL1        0.1693
     45 O          28.5822   74.3052   -5.8702 O.3     1  UNL1       -0.3794
     46 H          29.4008   74.0850   -6.3353 H       1  UNL1        0.2105
@<TRIPOS>BOND
     1    29    30    1
     2    30    41    1
     3    30    31    1
     4    31    34    1
     5    31    32    1
     6    32    35    1
     7    32    33    1
     8    33    36    1
     9    33    44    1
    10    39    40    1
    11    39    42    2
    12    39    41   am
    13    41    43    1
    14    29    28    1
    15    34    37    1
    16    35    38    1
    17    29    36    1
    18    44    45    1
    19    45    46    1
    20    15     6    1
    21    15    16   ar
    22    16    21    2
    23    16    17   ar
    24    17    23    1
    25    17    18   ar
    26    18    19   ar
    27    19    20   ar
    28    15    20   ar
    29    18    22    2
    30     6     7    1
    31     6    11    1
    32     7     9    1
    33     7     8    1
    34     8    13    1
    35     9    10    1
    36     9    12    1
    37    10     5    1
    38    10    11    1
    39    12    14    1
    40     5     4    1
    41     4     1    1
    42     1     2    1
    43     1    24    1
    44     1     3    2
    45    24    25    1
    46    28    25    1
    47    25    26    1
    48    25    27    2
@<TRIPOS>MOLECULE
UD2
 46 48 0 0 0
SMALL
GASTEIGER

@<TRIPOS>ATOM
      1 P          22.4213   70.4942   -0.1966 P.3     1  UNL1        0.2189
      2 O          21.4975   70.6332    1.1143 O.3     1  UNL1       -0.4371
      3 O          23.5982   69.6537    0.1154 O.2     1  UNL1       -0.5170
      4 O          21.5719   69.8097   -1.3814 O.3     1  UNL1       -0.3112
      5 C          21.5009   70.3532   -2.7009 C.3     1  UNL1        0.1811
      6 C          18.7138   70.7361   -4.9419 C.3     1  UNL1        0.2383
      7 C          18.6200   69.2692   -4.4504 C.3     1  UNL1        0.1895
      8 O          17.2606   68.8307   -4.4103 O.3     1  UNL1       -0.3779
      9 C          19.2115   69.3661   -3.0228 C.3     1  UNL1        0.1713
     10 C          20.0423   70.6632   -3.0466 C.3     1  UNL1        0.1764
     11 O          19.9588   71.2004   -4.3762 O.3     1  UNL1       -0.3308
     12 O          18.1652   69.4594   -2.0545 O.3     1  UNL1       -0.3794
     13 H          17.1500   67.9186   -4.1095 H       1  UNL1        0.2106
     14 H          17.5750   68.6941   -2.0371 H       1  UNL1        0.2105
     15 N          18.7602   70.7880   -6.4048 N.ar    1  UNL1       -0.2551
     16 C          17.6145   70.7686   -7.1090 C.ar    1  UNL1        0.3323
     17 N          17.6273   70.8150   -8.4543 N.ar    1  UNL1       -0.2743
     18 C          18.7981   70.8839   -9.1199 C.ar    1  UNL1        0.2626
     19 C          20.0117   70.9061   -8.3913 C.ar    1  UNL1        0.0795
     20 C          19.9690   70.8628   -7.0430 C.ar    1  UNL1        0.0869
     21 O          16.5515   70.7068   -6.5220 O.2     1  UNL1       -0.2464
     22 O          18.8111   70.9264  -10.3375 O.2     1  UNL1       -0.2670
     23 H          16.7922   70.7989   -8.9466 H       1  UNL1        0.1734
     24 O          22.9131   71.9546   -0.6644 O.3     1  UNL1       -0.2703
     25 P          22.3444   73.4463   -0.4535 P.3     1  UNL1        0.2208
     26 O          20.7344   73.4139   -0.4723 O.3     1  UNL1       -0.4371
     27 O          22.8115   73.9732    0.8474 O.2     1  UNL1       -0.5170
     28 O          22.8765   74.3960   -1.6400 O.3     1  UNL1       -0.2865
     29 C          23.9462   74.0269   -2.5122 C.3     1  UNL1        0.2611
     30 C          24.9488   75.1795   -2.6075 C.3     1  UNL1        0.1582
     31 C          24.2531   76.4010   -3.2159 C.3     1  UNL1        0.1625
     32 C          23.6762   76.0190   -4.5818 C.3     1  UNL1        0.1686
     33 C          22.7223   74.8339   -4.4102 C.3     1  UNL1        0.1760
     34 O          25.2007   77.4591   -3.3766 O.3     1  UNL1       -0.3801
     35 O          24.7390   75.6536   -5.4639 O.3     1  UNL1       -0.3794
     36 O          23.4241   73.7424   -3.8117 O.3     1  UNL1       -0.3263
     37 H          24.8277   78.2661   -3.7571 H       1  UNL1        0.2105
     38 H          24.4457   75.3983   -6.3497 H       1  UNL1        0.2105
     39 C          26.7565   75.7192   -1.0653 C.2     1  UNL1        0.2231
     40 C          27.2627   76.0618    0.3113 C.3     1  UNL1        0.0946
     41 N          25.4404   75.5124   -1.2681 N.am    1  UNL1       -0.2994
     42 O          27.5339   75.6292   -1.9926 O.2     1  UNL1       -0.2751
     43 H          24.8187   75.5833   -0.5269 H       1  UNL1        0.1496
     44 C          22.1875   74.4078   -5.7787 C.3     1  UNL1        0.1693
     45 O          22.7228   73.1282   -6.1228 O.3     1  UNL1       -0.3794
     46 H          22.4257   72.7946   -6.9805 H       1  UNL1        0.2105
@<TRIPOS>BOND
     1    29    30    1
     2    30    41    1
     3    30    31    1
     4    31    34    1
     5    31    32    1
     6    32    35    1
     7    32    33    1
     8    33    36    1
     9    33    44    1
    10    39    40    1
    11    39    42    2
    12    39    41   am
    13    41    43    1
    14    29    28    1
    15    34    37    1
    16    35    38    1
    17    29    36    1
    18    44    45    1
    19    45    46    1
    20    15     6    1
    21    15    16   ar
    22    16    21    2
    23    16    17   ar
    24    17    23    1
    25    17    18   ar
    26    18    19   ar
    27    19    20   ar
    28    15    20   ar
    29    18    22    2
    30     6     7    1
    31     6    11    1
    32     7     9    1
    33     7     8    1
    34     8    13    1
    35     9    10    1
    36     9    12    1
    37    10     5    1
    38    10    11    1
    39    12    14    1
    40     5     4    1
    41     4     1    1
    42     1     2    1
    43     1    24    1
    44     1     3    2
    45    24    25    1
    46    28    25    1
    47    25    26    1
    48    25    27    2
@<TRIPOS>MOLECULE
UD2
 46 48 0 0 0
SMALL
GASTEIGER

@<TRIPOS>ATOM
      1 P          22.8901   72.2596   -3.5064 P.3     1  UNL1        0.2189
      2 O          23.9379   73.4125   -3.1011 O.3     1  UNL1       -0.4371
      3 O          23.5318   70.9347   -3.3584 O.2     1  UNL1       -0.5170
      4 O          21.6020   72.3426   -2.5433 O.3     1  UNL1       -0.3112
      5 C          21.6070   73.0418   -1.2973 C.3     1  UNL1        0.1811
      6 C          23.2368   72.3390    1.8310 C.3     1  UNL1        0.2383
      7 C          22.4850   71.0298    1.4806 C.3     1  UNL1        0.1895
      8 O          23.1795   69.8903    1.9914 O.3     1  UNL1       -0.3779
      9 C          22.5108   71.0443   -0.0675 C.3     1  UNL1        0.1713
     10 C          22.7537   72.5228   -0.4262 C.3     1  UNL1        0.1764
     11 O          22.8035   73.2594    0.8060 O.3     1  UNL1       -0.3308
     12 O          23.5772   70.2289   -0.5563 O.3     1  UNL1       -0.3794
     13 H          22.7479   69.0471    1.7982 H       1  UNL1        0.2106
     14 H          23.5060   69.2971   -0.3089 H       1  UNL1        0.2105
     15 N          22.8435   72.8205    3.1571 N.ar    1  UNL1       -0.2551
     16 C          21.6082   72.5608    3.6210 C.ar    1  UNL1        0.3323
     17 N          21.2197   72.9912    4.8359 N.ar    1  UNL1       -0.2743
     18 C          22.0710   73.6927    5.6117 C.ar    1  UNL1        0.2626
     19 C          23.3748   73.9724    5.1363 C.ar    1  UNL1        0.0795
     20 C          23.7389   73.5250    3.9162 C.ar    1  UNL1        0.0869
     21 O          20.8301   71.9292    2.9325 O.2     1  UNL1       -0.2464
     22 O          21.7208   74.0825    6.7116 O.2     1  UNL1       -0.2670
     23 H          20.3249   72.7963    5.1546 H       1  UNL1        0.1734
     24 O          22.4300   72.4657   -5.0358 O.3     1  UNL1       -0.2703
     25 P          21.2639   73.3185   -5.7471 P.3     1  UNL1        0.2208
     26 O          20.9679   74.6457   -4.8842 O.3     1  UNL1       -0.4371
     27 O          21.6940   73.7023   -7.1095 O.2     1  UNL1       -0.5170
     28 O          19.9261   72.4270   -5.8374 O.3     1  UNL1       -0.2865
     29 C          18.6971   72.9197   -6.3743 C.3     1  UNL1        0.2611
     30 C          17.5371   72.0575   -5.8706 C.3     1  UNL1        0.1582
     31 C          17.7226   70.6227   -6.3741 C.3     1  UNL1        0.1625
     32 C          17.8141   70.6372   -7.9024 C.3     1  UNL1        0.1686
     33 C          18.9638   71.5544   -8.3278 C.3     1  UNL1        0.1760
     34 O          16.6059   69.8271   -5.9700 O.3     1  UNL1       -0.3801
     35 O          16.5871   71.1232   -8.4498 O.3     1  UNL1       -0.3794
     36 O          18.7454   72.8648   -7.8015 O.3     1  UNL1       -0.3263
     37 H          16.6573   68.9044   -6.2548 H       1  UNL1        0.2105
     38 H          16.5742   71.1602   -9.4164 H       1  UNL1        0.2105
     39 C          16.3521   72.1530   -3.7436 C.2     1  UNL1        0.2231
     40 C          16.3362   72.1598   -2.2375 C.3     1  UNL1        0.0946
     41 N          17.5225   72.0643   -4.4056 N.am    1  UNL1       -0.2994
     42 O          15.3106   72.2274   -4.3617 O.2     1  UNL1       -0.2751
     43 H          18.3554   72.0059   -3.9118 H       1  UNL1        0.1496
     44 C          19.0241   71.6213   -9.8550 C.3     1  UNL1        0.1693
     45 O          18.7261   70.3346  -10.4010 O.3     1  UNL1       -0.3794
     46 H          18.7462   70.3026  -11.3673 H       1  UNL1        0.2105
@<TRIPOS>BOND
     1    29    30    1
     2    30    41    1
     3    30    31    1
     4    31    34    1
     5    31    32    1
     6    32    35    1
     7    32    33    1
     8    33    36    1
     9    33    44    1
    10    39    40    1
    11    39    42    2
    12    39    41   am
    13    41    43    1
    14    29    28    1
    15    34    37    1
    16    35    38    1
    17    29    36    1
    18    44    45    1
    19    45    46    1
    20    15     6    1
    21    15    16   ar
    22    16    21    2
    23    16    17   ar
    24    17    23    1
    25    17    18   ar
    26    18    19   ar
    27    19    20   ar
    28    15    20   ar
    29    18    22    2
    30     6     7    1
    31     6    11    1
    32     7     9    1
    33     7     8    1
    34     8    13    1
    35     9    10    1
    36     9    12    1
    37    10     5    1
    38    10    11    1
    39    12    14    1
    40     5     4    1
    41     4     1    1
    42     1     2    1
    43     1    24    1
    44     1     3    2
    45    24    25    1
    46    28    25    1
    47    25    26    1
    48    25    27    2
@<TRIPOS>MOLECULE
UD2
 46 48 0 0 0
SMALL
GASTEIGER

@<TRIPOS>ATOM
      1 P          22.9182   72.9667   -3.3723 P.3     1  UNL1        0.2189
      2 O          23.6424   73.6843   -2.1265 O.3     1  UNL1       -0.4371
      3 O          23.4340   71.5876   -3.5161 O.2     1  UNL1       -0.5170
      4 O          21.3289   72.9213   -3.1155 O.3     1  UNL1       -0.3112
      5 C          20.6395   71.7346   -2.7182 C.3     1  UNL1        0.1811
      6 C          18.1654   71.2135   -5.2763 C.3     1  UNL1        0.2383
      7 C          18.1605   69.8987   -4.4558 C.3     1  UNL1        0.1895
      8 O          16.8630   69.3002   -4.4592 O.3     1  UNL1       -0.3779
      9 C          18.5346   70.3982   -3.0388 C.3     1  UNL1        0.1713
     10 C          19.2184   71.7563   -3.2866 C.3     1  UNL1        0.1764
     11 O          19.2636   71.9595   -4.7079 O.3     1  UNL1       -0.3308
     12 O          17.3603   70.5668   -2.2430 O.3     1  UNL1       -0.3794
     13 H          16.8091   68.4744   -3.9594 H       1  UNL1        0.2106
     14 H          16.8579   69.7526   -2.1045 H       1  UNL1        0.2105
     15 N          18.4085   70.9361   -6.6937 N.ar    1  UNL1       -0.2551
     16 C          17.3671   70.7823   -7.5308 C.ar    1  UNL1        0.3323
     17 N          17.5611   70.5265   -8.8381 N.ar    1  UNL1       -0.2743
     18 C          18.8120   70.4219   -9.3310 C.ar    1  UNL1        0.2626
     19 C          19.9174   70.5826   -8.4613 C.ar    1  UNL1        0.0795
     20 C          19.6936   70.8426   -7.1560 C.ar    1  UNL1        0.0869
     21 O          16.2337   70.8741   -7.1003 O.2     1  UNL1       -0.2464
     22 O          18.9889   70.1908  -10.5141 O.2     1  UNL1       -0.2670
     23 H          16.7991   70.4171   -9.4276 H       1  UNL1        0.1734
     24 O          23.2199   73.7961   -4.7193 O.3     1  UNL1       -0.2703
     25 P          22.4513   73.9645   -6.1242 P.3     1  UNL1        0.2208
     26 O          22.5900   72.6056   -6.9775 O.3     1  UNL1       -0.4371
     27 O          21.0206   74.2450   -5.8736 O.2     1  UNL1       -0.5170
     28 O          23.1016   75.1851   -6.9487 O.3     1  UNL1       -0.2865
     29 C          23.0482   75.2782   -8.3734 C.3     1  UNL1        0.2611
     30 C          24.0814   76.2980   -8.8582 C.3     1  UNL1        0.1582
     31 C          23.7318   77.6764   -8.2886 C.3     1  UNL1        0.1625
     32 C          22.3079   78.0461   -8.7131 C.3     1  UNL1        0.1686
     33 C          21.3428   76.9586   -8.2336 C.3     1  UNL1        0.1760
     34 O          24.6489   78.6487   -8.7954 O.3     1  UNL1       -0.3801
     35 O          22.2450   78.1474  -10.1368 O.3     1  UNL1       -0.3794
     36 O          21.7421   75.6975   -8.7742 O.3     1  UNL1       -0.3263
     37 H          24.4867   79.5465   -8.4745 H       1  UNL1        0.2105
     38 H          21.3693   78.3787  -10.4770 H       1  UNL1        0.2105
     39 C          26.3934   75.6619   -9.2914 C.2     1  UNL1        0.2231
     40 C          27.7639   75.2542   -8.8181 C.3     1  UNL1        0.0946
     41 N          25.4142   75.9013   -8.3970 N.am    1  UNL1       -0.2994
     42 O          26.1702   75.7749  -10.4787 O.2     1  UNL1       -0.2751
     43 H          25.5919   75.8102   -7.4477 H       1  UNL1        0.1496
     44 C          19.9258   77.2904   -8.7054 C.3     1  UNL1        0.1693
     45 O          19.9668   78.4184   -9.5819 O.3     1  UNL1       -0.3794
     46 H          19.1014   78.6857   -9.9205 H       1  UNL1        0.2105
@<TRIPOS>BOND
     1    29    30    1
     2    30    41    1
     3    30    31    1
     4    31    34    1
     5    31    32    1
     6    32    35    1
     7    32    33    1
     8    33    36    1
     9    33    44    1
    10    39    40    1
    11    39    42    2
    12    39    41   am
    13    41    43    1
    14    29    28    1
    15    34    37    1
    16    35    38    1
    17    29    36    1
    18    44    45    1
    19    45    46    1
    20    15     6    1
    21    15    16   ar
    22    16    21    2
    23    16    17   ar
    24    17    23    1
    25    17    18   ar
    26    18    19   ar
    27    19    20   ar
    28    15    20   ar
    29    18    22    2
    30     6     7    1
    31     6    11    1
    32     7     9    1
    33     7     8    1
    34     8    13    1
    35     9    10    1
    36     9    12    1
    37    10     5    1
    38    10    11    1
    39    12    14    1
    40     5     4    1
    41     4     1    1
    42     1     2    1
    43     1    24    1
    44     1     3    2
    45    24    25    1
    46    28    25    1
    47    25    26    1
    48    25    27    2
@<TRIPOS>MOLECULE
UD2
 46 48 0 0 0
SMALL
GASTEIGER

@<TRIPOS>ATOM
      1 P          22.0513   70.4333   -0.1399 P.3     1  UNL1        0.2189
      2 O          21.2815   70.9447    1.1782 O.3     1  UNL1       -0.4371
      3 O          22.9292   69.2953    0.2112 O.2     1  UNL1       -0.5170
      4 O          20.9748   69.9610   -1.2406 O.3     1  UNL1       -0.3112
      5 C          21.0660   70.3197   -2.6207 C.3     1  UNL1        0.1811
      6 C          18.5137   70.9314   -5.0800 C.3     1  UNL1        0.2383
      7 C          18.1169   69.5793   -4.4345 C.3     1  UNL1        0.1895
      8 O          16.6983   69.4081   -4.4406 O.3     1  UNL1       -0.3779
      9 C          18.6476   69.7408   -2.9889 C.3     1  UNL1        0.1713
     10 C          19.7121   70.8489   -3.1003 C.3     1  UNL1        0.1764
     11 O          19.7964   71.2237   -4.4844 O.3     1  UNL1       -0.3308
     12 O          17.5940   70.1451   -2.1130 O.3     1  UNL1       -0.3794
     13 H          16.4005   68.5765   -4.0477 H       1  UNL1        0.2106
     14 H          16.8677   69.5102   -2.0509 H       1  UNL1        0.2105
     15 N          18.6386   70.7925   -6.5327 N.ar    1  UNL1       -0.2551
     16 C          17.5331   70.7833   -7.2987 C.ar    1  UNL1        0.3323
     17 N          17.6181   70.6568   -8.6362 N.ar    1  UNL1       -0.2743
     18 C          18.8223   70.5385   -9.2316 C.ar    1  UNL1        0.2626
     19 C          19.9943   70.5477   -8.4375 C.ar    1  UNL1        0.0795
     20 C          19.8797   70.6801   -7.0993 C.ar    1  UNL1        0.0869
     21 O          16.4407   70.8892   -6.7754 O.2     1  UNL1       -0.2464
     22 O          18.9007   70.4244  -10.4421 O.2     1  UNL1       -0.2670
     23 H          16.8111   70.6508   -9.1735 H       1  UNL1        0.1734
     24 O          22.9417   71.6329   -0.7411 O.3     1  UNL1       -0.2703
     25 P          22.7981   73.2367   -0.7478 P.3     1  UNL1        0.2208
     26 O          21.3176   73.6404   -1.2363 O.3     1  UNL1       -0.4371
     27 O          23.0258   73.7583    0.6176 O.2     1  UNL1       -0.5170
     28 O          23.8862   73.8686   -1.7525 O.3     1  UNL1       -0.2865
     29 C          23.9039   75.2515   -2.1112 C.3     1  UNL1        0.2611
     30 C          24.5389   75.4128   -3.4944 C.3     1  UNL1        0.1582
     31 C          25.9909   74.9279   -3.4399 C.3     1  UNL1        0.1625
     32 C          26.7406   75.7151   -2.3616 C.3     1  UNL1        0.1686
     33 C          26.0205   75.5420   -1.0217 C.3     1  UNL1        0.1760
     34 O          26.6138   75.1430   -4.7083 O.3     1  UNL1       -0.3801
     35 O          26.7690   77.0995   -2.7138 O.3     1  UNL1       -0.3794
     36 O          24.6672   75.9828   -1.1495 O.3     1  UNL1       -0.3263
     37 H          27.5370   74.8575   -4.7461 H       1  UNL1        0.2105
     38 H          27.2290   77.6597   -2.0731 H       1  UNL1        0.2105
     39 C          22.8822   75.2072   -5.2694 C.2     1  UNL1        0.2231
     40 C          22.1149   74.3884   -6.2742 C.3     1  UNL1        0.0946
     41 N          23.7928   74.6157   -4.4713 N.am    1  UNL1       -0.2994
     42 O          22.6806   76.4002   -5.1781 O.2     1  UNL1       -0.2751
     43 H          23.9535   73.6617   -4.5433 H       1  UNL1        0.1496
     44 C          26.7292   76.3738    0.0490 C.3     1  UNL1        0.1693
     45 O          27.6838   75.5586    0.7321 O.3     1  UNL1       -0.3794
     46 H          28.1720   76.0217    1.4266 H       1  UNL1        0.2105
@<TRIPOS>BOND
     1    29    30    1
     2    30    41    1
     3    30    31    1
     4    31    34    1
     5    31    32    1
     6    32    35    1
     7    32    33    1
     8    33    36    1
     9    33    44    1
    10    39    40    1
    11    39    42    2
    12    39    41   am
    13    41    43    1
    14    29    28    1
    15    34    37    1
    16    35    38    1
    17    29    36    1
    18    44    45    1
    19    45    46    1
    20    15     6    1
    21    15    16   ar
    22    16    21    2
    23    16    17   ar
    24    17    23    1
    25    17    18   ar
    26    18    19   ar
    27    19    20   ar
    28    15    20   ar
    29    18    22    2
    30     6     7    1
    31     6    11    1
    32     7     9    1
    33     7     8    1
    34     8    13    1
    35     9    10    1
    36     9    12    1
    37    10     5    1
    38    10    11    1
    39    12    14    1
    40     5     4    1
    41     4     1    1
    42     1     2    1
    43     1    24    1
    44     1     3    2
    45    24    25    1
    46    28    25    1
    47    25    26    1
    48    25    27    2
@<TRIPOS>MOLECULE
UD2
 46 48 0 0 0
SMALL
GASTEIGER

@<TRIPOS>ATOM
      1 P          23.0394   72.1441   -3.1877 P.3     1  UNL1        0.2189
      2 O          24.3001   73.0453   -3.6233 O.3     1  UNL1       -0.4371
      3 O          23.4141   70.7137   -3.2374 O.2     1  UNL1       -0.5170
      4 O          22.5957   72.5309   -1.6886 O.3     1  UNL1       -0.3112
      5 C          22.2875   71.5538   -0.6928 C.3     1  UNL1        0.1811
      6 C          20.4249   72.9209    2.0638 C.3     1  UNL1        0.2383
      7 C          20.6359   74.1191    1.1036 C.3     1  UNL1        0.1895
      8 O          19.5481   75.0414    1.1921 O.3     1  UNL1       -0.3779
      9 C          20.6613   73.4261   -0.2807 C.3     1  UNL1        0.1713
     10 C          21.0055   71.9588    0.0390 C.3     1  UNL1        0.1764
     11 O          21.2028   71.8653    1.4588 O.3     1  UNL1       -0.3308
     12 O          19.3803   73.5149   -0.9067 O.3     1  UNL1       -0.3794
     13 H          19.6343   75.8087    0.6104 H       1  UNL1        0.2106
     14 H          19.0870   74.4200   -1.0775 H       1  UNL1        0.2105
     15 N          20.9332   73.2356    3.4008 N.ar    1  UNL1       -0.2551
     16 C          22.2487   73.1229    3.6572 C.ar    1  UNL1        0.3323
     17 N          22.7435   73.4053    4.8768 N.ar    1  UNL1       -0.2743
     18 C          21.9210   73.8101    5.8659 C.ar    1  UNL1        0.2626
     19 C          20.5342   73.9341    5.6097 C.ar    1  UNL1        0.0795
     20 C          20.0662   73.6484    4.3765 C.ar    1  UNL1        0.0869
     21 O          23.0021   72.7592    2.7748 O.2     1  UNL1       -0.2464
     22 O          22.3676   74.0664    6.9701 O.2     1  UNL1       -0.2670
     23 H          23.6944   73.3176    5.0450 H       1  UNL1        0.1734
     24 O          21.8129   72.4133   -4.1959 O.3     1  UNL1       -0.2703
     25 P          21.6488   73.2603   -5.5556 P.3     1  UNL1        0.2208
     26 O          21.5959   74.8314   -5.2054 O.3     1  UNL1       -0.4371
     27 O          22.7994   72.9925   -6.4459 O.2     1  UNL1       -0.5170
     28 O          20.2853   72.8288   -6.2953 O.3     1  UNL1       -0.2865
     29 C          20.0647   71.5176   -6.8182 C.3     1  UNL1        0.2611
     30 C          19.9787   71.5838   -8.3449 C.3     1  UNL1        0.1582
     31 C          18.7803   72.4510   -8.7430 C.3     1  UNL1        0.1625
     32 C          17.5113   71.8685   -8.1149 C.3     1  UNL1        0.1686
     33 C          17.6924   71.7913   -6.5966 C.3     1  UNL1        0.1760
     34 O          18.6486   72.4585  -10.1664 O.3     1  UNL1       -0.3801
     35 O          17.2783   70.5586   -8.6358 O.3     1  UNL1       -0.3794
     36 O          18.8410   70.9963   -6.2954 O.3     1  UNL1       -0.3263
     37 H          17.9084   72.9902  -10.4896 H       1  UNL1        0.2105
     38 H          16.4885   70.1278   -8.2800 H       1  UNL1        0.2105
     39 C          21.2698   73.4969   -9.1265 C.2     1  UNL1        0.2231
     40 C          22.5342   74.1040   -9.6755 C.3     1  UNL1        0.0946
     41 N          21.2088   72.1735   -8.8792 N.am    1  UNL1       -0.2994
     42 O          20.3052   74.1993   -8.9066 O.2     1  UNL1       -0.2751
     43 H          21.9795   71.6114   -9.0557 H       1  UNL1        0.1496
     44 C          16.4519   71.1549   -5.9669 C.3     1  UNL1        0.1693
     45 O          16.6058   69.7344   -5.9401 O.3     1  UNL1       -0.3794
     46 H          15.8549   69.2641   -5.5531 H       1  UNL1        0.2105
@<TRIPOS>BOND
     1    29    30    1
     2    30    41    1
     3    30    31    1
     4    31    34    1
     5    31    32    1
     6    32    35    1
     7    32    33    1
     8    33    36    1
     9    33    44    1
    10    39    40    1
    11    39    42    2
    12    39    41   am
    13    41    43    1
    14    29    28    1
    15    34    37    1
    16    35    38    1
    17    29    36    1
    18    44    45    1
    19    45    46    1
    20    15     6    1
    21    15    16   ar
    22    16    21    2
    23    16    17   ar
    24    17    23    1
    25    17    18   ar
    26    18    19   ar
    27    19    20   ar
    28    15    20   ar
    29    18    22    2
    30     6     7    1
    31     6    11    1
    32     7     9    1
    33     7     8    1
    34     8    13    1
    35     9    10    1
    36     9    12    1
    37    10     5    1
    38    10    11    1
    39    12    14    1
    40     5     4    1
    41     4     1    1
    42     1     2    1
    43     1    24    1
    44     1     3    2
    45    24    25    1
    46    28    25    1
    47    25    26    1
    48    25    27    2
@<TRIPOS>MOLECULE
UD2
 46 48 0 0 0
SMALL
GASTEIGER

@<TRIPOS>ATOM
      1 P          23.0119   72.0347   -3.1503 P.3     1  UNL1        0.2189
      2 O          24.0013   72.9937   -3.9827 O.3     1  UNL1       -0.4371
      3 O          23.5010   70.6401   -3.2205 O.2     1  UNL1       -0.5170
      4 O          22.9699   72.5120   -1.6128 O.3     1  UNL1       -0.3112
      5 C          22.7189   71.6170   -0.5277 C.3     1  UNL1        0.1811
      6 C          22.2478   73.8293    2.2688 C.3     1  UNL1        0.2383
      7 C          21.9975   74.7169    1.0232 C.3     1  UNL1        0.1895
      8 O          21.0488   75.7456    1.3122 O.3     1  UNL1       -0.3779
      9 C          21.4179   73.6997    0.0100 C.3     1  UNL1        0.1713
     10 C          21.8868   72.3313    0.5402 C.3     1  UNL1        0.1764
     11 O          22.6921   72.5765    1.7041 O.3     1  UNL1       -0.3308
     12 O          19.9911   73.7685   -0.0052 O.3     1  UNL1       -0.3794
     13 H          20.8593   76.3278    0.5640 H       1  UNL1        0.2106
     14 H          19.6408   74.6282   -0.2749 H       1  UNL1        0.2105
     15 N          23.2902   74.4121    3.1165 N.ar    1  UNL1       -0.2551
     16 C          24.3067   75.0887    2.5527 C.ar    1  UNL1        0.3323
     17 N          25.2786   75.6347    3.3074 N.ar    1  UNL1       -0.2743
     18 C          25.2454   75.5114    4.6499 C.ar    1  UNL1        0.2626
     19 C          24.1808   74.8026    5.2568 C.ar    1  UNL1        0.0795
     20 C          23.2177   74.2692    4.4761 C.ar    1  UNL1        0.0869
     21 O          24.3493   75.2080    1.3434 O.2     1  UNL1       -0.2464
     22 O          26.1242   76.0054    5.3341 O.2     1  UNL1       -0.2670
     23 H          26.0049   76.1183    2.8847 H       1  UNL1        0.1734
     24 O          21.5310   72.1166   -3.7777 O.3     1  UNL1       -0.2703
     25 P          20.8982   72.8643   -5.0557 P.3     1  UNL1        0.2208
     26 O          20.4926   74.3692   -4.6500 O.3     1  UNL1       -0.4371
     27 O          21.8935   72.9002   -6.1495 O.2     1  UNL1       -0.5170
     28 O          19.5875   72.0691   -5.5480 O.3     1  UNL1       -0.2865
     29 C          18.3020   72.6821   -5.6619 C.3     1  UNL1        0.2611
     30 C          17.2133   71.6130   -5.5409 C.3     1  UNL1        0.1582
     31 C          17.3575   70.6168   -6.6955 C.3     1  UNL1        0.1625
     32 C          17.2807   71.3758   -8.0231 C.3     1  UNL1        0.1686
     33 C          18.3671   72.4543   -8.0484 C.3     1  UNL1        0.1760
     34 O          16.3002   69.6568   -6.6324 O.3     1  UNL1       -0.3801
     35 O          15.9960   71.9882   -8.1495 O.3     1  UNL1       -0.3794
     36 O          18.1940   73.3288   -6.9317 O.3     1  UNL1       -0.3263
     37 H          16.3298   68.9930   -7.3350 H       1  UNL1        0.2105
     38 H          15.8768   72.4881   -8.9692 H       1  UNL1        0.2105
     39 C          18.2672   69.9199   -4.1408 C.2     1  UNL1        0.2231
     40 C          18.4183   69.1949   -2.8292 C.3     1  UNL1        0.0946
     41 N          17.3594   70.9081   -4.2649 N.am    1  UNL1       -0.2994
     42 O          18.9631   69.6144   -5.0866 O.2     1  UNL1       -0.2751
     43 H          16.8022   71.1520   -3.5092 H       1  UNL1        0.1496
     44 C          18.2588   73.2565   -9.3465 C.3     1  UNL1        0.1693
     45 O          18.3559   72.3710  -10.4641 O.3     1  UNL1       -0.3794
     46 H          18.2952   72.8121  -11.3225 H       1  UNL1        0.2105
@<TRIPOS>BOND
     1    29    30    1
     2    30    41    1
     3    30    31    1
     4    31    34    1
     5    31    32    1
     6    32    35    1
     7    32    33    1
     8    33    36    1
     9    33    44    1
    10    39    40    1
    11    39    42    2
    12    39    41   am
    13    41    43    1
    14    29    28    1
    15    34    37    1
    16    35    38    1
    17    29    36    1
    18    44    45    1
    19    45    46    1
    20    15     6    1
    21    15    16   ar
    22    16    21    2
    23    16    17   ar
    24    17    23    1
    25    17    18   ar
    26    18    19   ar
    27    19    20   ar
    28    15    20   ar
    29    18    22    2
    30     6     7    1
    31     6    11    1
    32     7     9    1
    33     7     8    1
    34     8    13    1
    35     9    10    1
    36     9    12    1
    37    10     5    1
    38    10    11    1
    39    12    14    1
    40     5     4    1
    41     4     1    1
    42     1     2    1
    43     1    24    1
    44     1     3    2
    45    24    25    1
    46    28    25    1
    47    25    26    1
    48    25    27    2
@<TRIPOS>MOLECULE
UD2
 46 48 0 0 0
SMALL
GASTEIGER

@<TRIPOS>ATOM
      1 P          19.9536   69.9293   -2.3340 P.3     1  UNL1        0.2189
      2 O          18.5391   69.1815   -2.1569 O.3     1  UNL1       -0.4371
      3 O          20.7850   69.1890   -3.3085 O.2     1  UNL1       -0.5170
      4 O          19.7050   71.4277   -2.8694 O.3     1  UNL1       -0.3112
      5 C          19.5037   71.7363   -4.2498 C.3     1  UNL1        0.1811
      6 C          16.6250   72.1305   -6.3697 C.3     1  UNL1        0.2383
      7 C          17.0997   70.6771   -6.6235 C.3     1  UNL1        0.1895
      8 O          15.9962   69.8294   -6.9481 O.3     1  UNL1       -0.3779
      9 C          17.7092   70.2902   -5.2538 C.3     1  UNL1        0.1713
     10 C          18.0122   71.6426   -4.5809 C.3     1  UNL1        0.1764
     11 O          17.6528   72.6744   -5.5134 O.3     1  UNL1       -0.3308
     12 O          16.7662   69.5464   -4.4803 O.3     1  UNL1       -0.3794
     13 H          16.2425   68.9098   -7.1163 H       1  UNL1        0.2106
     14 H          16.4947   68.7120   -4.8859 H       1  UNL1        0.2105
     15 N          16.5528   72.8767   -7.6279 N.ar    1  UNL1       -0.2551
     16 C          17.6182   72.9043   -8.4483 C.ar    1  UNL1        0.3323
     17 N          17.5801   73.5822   -9.6107 N.ar    1  UNL1       -0.2743
     18 C          16.4638   74.2467   -9.9726 C.ar    1  UNL1        0.2626
     19 C          15.3346   74.2253   -9.1191 C.ar    1  UNL1        0.0795
     20 C          15.3994   73.5341   -7.9617 C.ar    1  UNL1        0.0869
     21 O          18.6313   72.3095   -8.1349 O.2     1  UNL1       -0.2464
     22 O          16.4279   74.8603  -11.0246 O.2     1  UNL1       -0.2670
     23 H          18.3576   73.5928  -10.1900 H       1  UNL1        0.1734
     24 O          20.7122   69.9863   -0.9146 O.3     1  UNL1       -0.2703
     25 P          22.2266   70.3036   -0.4685 P.3     1  UNL1        0.2208
     26 O          22.8153   69.0529    0.3579 O.3     1  UNL1       -0.4371
     27 O          23.0571   70.5348   -1.6706 O.2     1  UNL1       -0.5170
     28 O          22.2479   71.6188    0.4602 O.3     1  UNL1       -0.2865
     29 C          21.0630   72.2207    0.9847 C.3     1  UNL1        0.2611
     30 C          20.9900   73.6820    0.5353 C.3     1  UNL1        0.1582
     31 C          22.1904   74.4433    1.1064 C.3     1  UNL1        0.1625
     32 C          22.1910   74.3043    2.6312 C.3     1  UNL1        0.1686
     33 C          22.2178   72.8186    2.9998 C.3     1  UNL1        0.1760
     34 O          22.0913   75.8248    0.7528 O.3     1  UNL1       -0.3801
     35 O          21.0122   74.9086    3.1664 O.3     1  UNL1       -0.3794
     36 O          21.0919   72.1633    2.4123 O.3     1  UNL1       -0.3263
     37 H          22.8208   76.3678    1.0818 H       1  UNL1        0.2105
     38 H          20.9458   74.8568    4.1302 H       1  UNL1        0.2105
     39 C          22.1916   73.9255   -1.5705 C.2     1  UNL1        0.2231
     40 C          22.2241   73.9912   -3.0749 C.3     1  UNL1        0.0946
     41 N          21.0207   73.7461   -0.9280 N.am    1  UNL1       -0.2994
     42 O          23.2202   74.0342   -0.9361 O.2     1  UNL1       -0.2751
     43 H          20.1980   73.6601   -1.4348 H       1  UNL1        0.1496
     44 C          22.1583   72.6697    4.5212 C.3     1  UNL1        0.1693
     45 O          22.8827   73.7385    5.1338 O.3     1  UNL1       -0.3794
     46 H          22.8874   73.7080    6.1003 H       1  UNL1        0.2105
@<TRIPOS>BOND
     1    29    30    1
     2    30    41    1
     3    30    31    1
     4    31    34    1
     5    31    32    1
     6    32    35    1
     7    32    33    1
     8    33    36    1
     9    33    44    1
    10    39    40    1
    11    39    42    2
    12    39    41   am
    13    41    43    1
    14    29    28    1
    15    34    37    1
    16    35    38    1
    17    29    36    1
    18    44    45    1
    19    45    46    1
    20    15     6    1
    21    15    16   ar
    22    16    21    2
    23    16    17   ar
    24    17    23    1
    25    17    18   ar
    26    18    19   ar
    27    19    20   ar
    28    15    20   ar
    29    18    22    2
    30     6     7    1
    31     6    11    1
    32     7     9    1
    33     7     8    1
    34     8    13    1
    35     9    10    1
    36     9    12    1
    37    10     5    1
    38    10    11    1
    39    12    14    1
    40     5     4    1
    41     4     1    1
    42     1     2    1
    43     1    24    1
    44     1     3    2
    45    24    25    1
    46    28    25    1
    47    25    26    1
    48    25    27    2
@<TRIPOS>MOLECULE
UD2
 46 48 0 0 0
SMALL
GASTEIGER

@<TRIPOS>ATOM
      1 P          20.1082   70.5679   -3.7746 P.3     1  UNL1        0.2189
      2 O          19.0282   71.1481   -2.7314 O.3     1  UNL1       -0.4371
      3 O          20.7549   69.3678   -3.1998 O.2     1  UNL1       -0.5170
      4 O          19.3677   70.1723   -5.1490 O.3     1  UNL1       -0.3112
      5 C          17.9569   70.2990   -5.3360 C.3     1  UNL1        0.1811
      6 C          18.8998   72.8064   -7.7361 C.3     1  UNL1        0.2383
      7 C          18.8058   71.4958   -8.5581 C.3     1  UNL1        0.1895
      8 O          18.4084   71.7653   -9.9039 O.3     1  UNL1       -0.3779
      9 C          17.7025   70.7159   -7.8019 C.3     1  UNL1        0.1713
     10 C          17.6774   71.3605   -6.4028 C.3     1  UNL1        0.1764
     11 O          18.7053   72.3635   -6.3753 O.3     1  UNL1       -0.3308
     12 O          16.4409   70.8803   -8.4516 O.3     1  UNL1       -0.3794
     13 H          18.3360   70.9766  -10.4583 H       1  UNL1        0.2106
     14 H          16.4177   70.5450   -9.3579 H       1  UNL1        0.2105
     15 N          20.2193   73.4217   -7.8952 N.ar    1  UNL1       -0.2551
     16 C          20.3144   74.6935   -8.3222 C.ar    1  UNL1        0.3323
     17 N          21.5140   75.2842   -8.4777 N.ar    1  UNL1       -0.2743
     18 C          22.6459   74.6043   -8.2037 C.ar    1  UNL1        0.2626
     19 C          22.5605   73.2652   -7.7524 C.ar    1  UNL1        0.0795
     20 C          21.3445   72.6995   -7.6015 C.ar    1  UNL1        0.0869
     21 O          19.3021   75.3186   -8.5729 O.2     1  UNL1       -0.2464
     22 O          23.7323   75.1379   -8.3436 O.2     1  UNL1       -0.2670
     23 H          21.5647   76.2015   -8.7877 H       1  UNL1        0.1734
     24 O          21.2248   71.6897   -4.0711 O.3     1  UNL1       -0.2703
     25 P          22.6889   71.9948   -3.4742 P.3     1  UNL1        0.2208
     26 O          23.4083   70.6079   -3.0835 O.3     1  UNL1       -0.4371
     27 O          23.4991   72.7007   -4.4909 O.2     1  UNL1       -0.5170
     28 O          22.5517   72.9171   -2.1616 O.3     1  UNL1       -0.2865
     29 C          21.3930   72.9142   -1.3257 C.3     1  UNL1        0.2611
     30 C          21.3625   74.1959   -0.4897 C.3     1  UNL1        0.1582
     31 C          22.5932   74.2301    0.4217 C.3     1  UNL1        0.1625
     32 C          22.6064   72.9700    1.2913 C.3     1  UNL1        0.1686
     33 C          22.5890   71.7353    0.3863 C.3     1  UNL1        0.1760
     34 O          22.5351   75.3875    1.2587 O.3     1  UNL1       -0.3801
     35 O          21.4539   72.9602    2.1356 O.3     1  UNL1       -0.3794
     36 O          21.4360   71.7806   -0.4566 O.3     1  UNL1       -0.3263
     37 H          23.2855   75.4736    1.8626 H       1  UNL1        0.2105
     38 H          21.3966   72.1877    2.7152 H       1  UNL1        0.2105
     39 C          20.2504   76.0683   -1.5829 C.2     1  UNL1        0.2231
     40 C          20.2663   77.2657   -2.4963 C.3     1  UNL1        0.0946
     41 N          21.3788   75.3604   -1.3785 N.am    1  UNL1       -0.2994
     42 O          19.2211   75.7402   -1.0305 O.2     1  UNL1       -0.2751
     43 H          22.2017   75.6218   -1.8208 H       1  UNL1        0.1496
     44 C          22.5418   70.4722    1.2482 C.3     1  UNL1        0.1693
     45 O          21.7337   69.4850    0.6041 O.3     1  UNL1       -0.3794
     46 H          21.6589   68.6555    1.0953 H       1  UNL1        0.2105
@<TRIPOS>BOND
     1    29    30    1
     2    30    41    1
     3    30    31    1
     4    31    34    1
     5    31    32    1
     6    32    35    1
     7    32    33    1
     8    33    36    1
     9    33    44    1
    10    39    40    1
    11    39    42    2
    12    39    41   am
    13    41    43    1
    14    29    28    1
    15    34    37    1
    16    35    38    1
    17    29    36    1
    18    44    45    1
    19    45    46    1
    20    15     6    1
    21    15    16   ar
    22    16    21    2
    23    16    17   ar
    24    17    23    1
    25    17    18   ar
    26    18    19   ar
    27    19    20   ar
    28    15    20   ar
    29    18    22    2
    30     6     7    1
    31     6    11    1
    32     7     9    1
    33     7     8    1
    34     8    13    1
    35     9    10    1
    36     9    12    1
    37    10     5    1
    38    10    11    1
    39    12    14    1
    40     5     4    1
    41     4     1    1
    42     1     2    1
    43     1    24    1
    44     1     3    2
    45    24    25    1
    46    28    25    1
    47    25    26    1
    48    25    27    2
@<TRIPOS>MOLECULE
UD2
 46 48 0 0 0
SMALL
GASTEIGER

@<TRIPOS>ATOM
      1 P          22.3354   72.5864   -2.9213 P.3     1  UNL1        0.2189
      2 O          23.4186   71.5791   -3.5563 O.3     1  UNL1       -0.4371
      3 O          21.2032   71.8103   -2.3694 O.2     1  UNL1       -0.5170
      4 O          23.0243   73.4422   -1.7437 O.3     1  UNL1       -0.3112
      5 C          22.2981   73.9418   -0.6192 C.3     1  UNL1        0.1811
      6 C          22.7743   73.4139    2.9066 C.3     1  UNL1        0.2383
      7 C          21.2936   73.0332    2.6521 C.3     1  UNL1        0.1895
      8 O          20.8656   72.0153    3.5589 O.3     1  UNL1       -0.3779
      9 C          21.3409   72.4957    1.2007 C.3     1  UNL1        0.1713
     10 C          22.6311   73.1020    0.6165 C.3     1  UNL1        0.1764
     11 O          23.2102   73.9360    1.6327 O.3     1  UNL1       -0.3308
     12 O          21.4129   71.0690    1.1992 O.3     1  UNL1       -0.3794
     13 H          19.9455   71.7435    3.4396 H       1  UNL1        0.2106
     14 H          20.6524   70.6356    1.6093 H       1  UNL1        0.2105
     15 N          22.8713   74.4411    3.9461 N.ar    1  UNL1       -0.2551
     16 C          23.9738   74.5109    4.7132 C.ar    1  UNL1        0.3323
     17 N          24.0900   75.4445    5.6760 N.ar    1  UNL1       -0.2743
     18 C          23.0956   76.3310    5.8853 C.ar    1  UNL1        0.2626
     19 C          21.9298   76.2698    5.0845 C.ar    1  UNL1        0.0795
     20 C          21.8420   75.3260    4.1237 C.ar    1  UNL1        0.0869
     21 O          24.8785   73.7181    4.5355 O.2     1  UNL1       -0.2464
     22 O          23.1997   77.1767    6.7562 O.2     1  UNL1       -0.2670
     23 H          24.8912   75.4800    6.2209 H       1  UNL1        0.1734
     24 O          21.7959   73.5847   -4.0640 O.3     1  UNL1       -0.2703
     25 P          21.4538   73.4127   -5.6281 P.3     1  UNL1        0.2208
     26 O          21.1736   74.8595   -6.2779 O.3     1  UNL1       -0.4371
     27 O          22.5983   72.7768   -6.3166 O.2     1  UNL1       -0.5170
     28 O          20.1463   72.4875   -5.7929 O.3     1  UNL1       -0.2865
     29 C          18.9100   72.9736   -6.3188 C.3     1  UNL1        0.2611
     30 C          17.7582   72.1111   -5.7971 C.3     1  UNL1        0.1582
     31 C          17.9422   70.6740   -6.2943 C.3     1  UNL1        0.1625
     32 C          18.0165   70.6798   -7.8236 C.3     1  UNL1        0.1686
     33 C          19.1586   71.5977   -8.2673 C.3     1  UNL1        0.1760
     34 O          16.8324   69.8775   -5.8731 O.3     1  UNL1       -0.3801
     35 O          16.7820   71.1592   -8.3600 O.3     1  UNL1       -0.3794
     36 O          18.9424   72.9106   -7.7461 O.3     1  UNL1       -0.3263
     37 H          16.8833   68.9533   -6.1531 H       1  UNL1        0.2105
     38 H          16.7582   71.1905   -9.3266 H       1  UNL1        0.2105
     39 C          16.5941   72.1472   -3.6567 C.2     1  UNL1        0.2231
     40 C          16.5952   72.1627   -2.1506 C.3     1  UNL1        0.0946
     41 N          17.7601   72.1264   -4.3321 N.am    1  UNL1       -0.2994
     42 O          15.5430   72.1536   -4.2629 O.2     1  UNL1       -0.2751
     43 H          18.6007   72.1223   -3.8479 H       1  UNL1        0.1496
     44 C          19.2016   71.6560   -9.7954 C.3     1  UNL1        0.1693
     45 O          18.7192   70.4230  -10.3336 O.3     1  UNL1       -0.3794
     46 H          18.7182   70.3887  -11.2999 H       1  UNL1        0.2105
@<TRIPOS>BOND
     1    29    30    1
     2    30    41    1
     3    30    31    1
     4    31    34    1
     5    31    32    1
     6    32    35    1
     7    32    33    1
     8    33    36    1
     9    33    44    1
    10    39    40    1
    11    39    42    2
    12    39    41   am
    13    41    43    1
    14    29    28    1
    15    34    37    1
    16    35    38    1
    17    29    36    1
    18    44    45    1
    19    45    46    1
    20    15     6    1
    21    15    16   ar
    22    16    21    2
    23    16    17   ar
    24    17    23    1
    25    17    18   ar
    26    18    19   ar
    27    19    20   ar
    28    15    20   ar
    29    18    22    2
    30     6     7    1
    31     6    11    1
    32     7     9    1
    33     7     8    1
    34     8    13    1
    35     9    10    1
    36     9    12    1
    37    10     5    1
    38    10    11    1
    39    12    14    1
    40     5     4    1
    41     4     1    1
    42     1     2    1
    43     1    24    1
    44     1     3    2
    45    24    25    1
    46    28    25    1
    47    25    26    1
    48    25    27    2
