@<TRIPOS>MOLECULE
*****
 43 45 0 0 0
SMALL
GASTEIGER

@<TRIPOS>ATOM
      1 P          23.0160   71.7109   -2.6018 P.3     1  UNL1        0.2189
      2 O          23.2962   73.2363   -2.1412 O.co2   1  UNL1       -0.4371
      3 O          24.1805   71.0200   -3.2482 O.2     1  UNL1       -0.5170
      4 O          21.6747   71.8168   -3.5004 O.3     1  UNL1       -0.3112
      5 C          20.8735   70.6587   -3.6584 C.3     1  UNL1        0.1811
      6 O          18.8910   71.6515   -4.5845 O.3     1  UNL1       -0.3308
      7 O          17.3935   70.2508   -2.3967 O.3     1  UNL1       -0.3794
      8 O          16.9389   68.6430   -4.5519 O.3     1  UNL1       -0.3779
      9 C          18.5323   69.8113   -3.1351 C.3     1  UNL1        0.1713
     10 C          18.1264   69.4088   -4.5375 C.3     1  UNL1        0.1895
     11 C          19.4186   71.0228   -3.3959 C.3     1  UNL1        0.1764
     12 C          17.9605   70.7576   -5.2169 C.3     1  UNL1        0.2383
     13 H          16.8127   69.4941   -2.2178 H       1  UNL1        0.2105
     14 H          17.0955   67.7948   -4.1084 H       1  UNL1        0.2106
     15 O          16.1065   69.9691   -7.1964 O.2     1  UNL1       -0.2464
     16 O          19.1781   70.5813  -10.5774 O.2     1  UNL1       -0.2670
     17 N          18.2489   70.7021   -6.6223 N.ar    1  UNL1       -0.2551
     18 N          17.6374   70.2747   -8.8783 N.ar    1  UNL1       -0.2743
     19 C          17.2477   70.2917   -7.5330 C.ar    1  UNL1        0.3323
     20 C          19.5127   71.0526   -7.0847 C.ar    1  UNL1        0.0869
     21 C          19.8688   71.0298   -8.3708 C.ar    1  UNL1        0.0795
     22 C          18.8814   70.6128   -9.3871 C.ar    1  UNL1        0.2626
     23 H          16.9564   69.9917   -9.5309 H       1  UNL1        0.1734
     24 O          22.4887   71.0120   -1.2429 O.3     1  UNL1       -0.2703
     25 P          21.6128   71.5994   -0.0179 P.3     1  UNL1        0.2208
     26 O          21.1188   70.2678    0.7570 O.co2   1  UNL1       -0.4371
     27 O          20.5029   72.5180   -0.4399 O.2     1  UNL1       -0.5170
     28 O          22.6955   72.2700    0.9737 O.3     1  UNL1       -0.2858
     29 O          24.4316   71.6668    2.4698 O.3     1  UNL1       -0.3258
     30 O          22.1095   73.9260    5.0301 O.3     1  UNL1       -0.3794
     31 O          24.6092   74.9764    4.0834 O.3     1  UNL1       -0.3794
     32 O          20.8469   72.1947    3.0837 O.3     1  UNL1       -0.3775
     33 C          22.6984   73.5709    3.7761 C.3     1  UNL1        0.1715
     34 C          24.2199   73.6142    3.9314 C.3     1  UNL1        0.1694
     35 C          22.2374   72.1674    3.3876 C.3     1  UNL1        0.1967
     36 C          24.9188   72.9912    2.7156 C.3     1  UNL1        0.1761
     37 C          23.0295   71.6217    2.1982 C.3     1  UNL1        0.2704
     38 H          22.3978   74.8163    5.2822 H       1  UNL1        0.2105
     39 H          24.1605   75.3581    4.8543 H       1  UNL1        0.2105
     40 H          20.3565   72.5418    3.8446 H       1  UNL1        0.2106
     41 O          26.8046   71.5247    2.7632 O.3     1  UNL1       -0.3794
     42 C          26.4284   72.8807    2.9181 C.3     1  UNL1        0.1693
     43 H          27.7630   71.4392    2.8891 H       1  UNL1        0.2105
@<TRIPOS>UNITY_ATOM_ATTR
2 1
charge -1
26 1
charge -1
@<TRIPOS>BOND
     1    25    28    1
     2    25    24    1
     3    25    26    1
     4    25    27    2
     5     1     4    1
     6     1    24    1
     7     1     2    1
     8     1     3    2
     9     6    11    1
    10     6    12    1
    11    29    36    1
    12    29    37    1
    13     7     9    1
    14     7    13    1
    15     8    10    1
    16     8    14    1
    17    28    37    1
    18     4     5    1
    19    30    33    1
    20    30    38    1
    21    31    34    1
    22    31    39    1
    23    32    35    1
    24    32    40    1
    25    41    42    1
    26    41    43    1
    27    15    19    2
    28    16    22    2
    29    17    12    1
    30    17    19   ar
    31    17    20   ar
    32    18    19   ar
    33    18    22   ar
    34    18    23    1
    35     9    10    1
    36     9    11    1
    37    10    12    1
    38    11     5    1
    39    33    34    1
    40    33    35    1
    41    34    36    1
    42    35    37    1
    43    36    42    1
    44    20    21   ar
    45    21    22   ar
@<TRIPOS>MOLECULE
*****
 43 45 0 0 0
SMALL
GASTEIGER

@<TRIPOS>ATOM
      1 P          23.3775   71.8129   -3.2961 P.3     1  UNL1        0.2189
      2 O          24.1016   72.9721   -4.1618 O.co2   1  UNL1       -0.4371
      3 O          24.2574   70.6551   -2.9261 O.2     1  UNL1       -0.5170
      4 O          22.0610   71.4462   -4.1623 O.3     1  UNL1       -0.3112
      5 C          21.6167   72.3698   -5.1408 C.3     1  UNL1        0.1811
      6 O          20.5568   70.4445   -6.1124 O.3     1  UNL1       -0.3308
      7 O          20.7250   71.9038   -8.7263 O.3     1  UNL1       -0.3794
      8 O          18.1261   72.2901   -7.9961 O.3     1  UNL1       -0.3779
      9 C          20.4842   72.4205   -7.4185 C.3     1  UNL1        0.1713
     10 C          19.0769   72.0843   -6.9712 C.3     1  UNL1        0.1895
     11 C          21.3300   71.6211   -6.4352 C.3     1  UNL1        0.1764
     12 C          19.2107   70.6217   -6.5828 C.3     1  UNL1        0.2383
     13 H          20.1958   72.3990   -9.3719 H       1  UNL1        0.2105
     14 H          18.0778   73.2355   -8.2074 H       1  UNL1        0.2106
     15 O          16.5408   69.8065   -7.0133 O.2     1  UNL1       -0.2464
     16 O          15.8038   69.2070   -2.5035 O.2     1  UNL1       -0.2670
     17 N          18.2988   70.2465   -5.5392 N.ar    1  UNL1       -0.2551
     18 N          16.1761   69.5085   -4.7674 N.ar    1  UNL1       -0.2743
     19 C          16.9790   69.8536   -5.8620 C.ar    1  UNL1        0.3323
     20 C          18.7160   70.2702   -4.2128 C.ar    1  UNL1        0.0869
     21 C          17.9376   69.9394   -3.1804 C.ar    1  UNL1        0.0795
     22 C          16.5444   69.5173   -3.4314 C.ar    1  UNL1        0.2626
     23 H          15.2525   69.2318   -4.9681 H       1  UNL1        0.1734
     24 O          22.7698   72.6251   -2.0375 O.3     1  UNL1       -0.2703
     25 P          21.3844   72.4420   -1.2249 P.3     1  UNL1        0.2208
     26 O          21.1505   70.8413   -1.2463 O.co2   1  UNL1       -0.4371
     27 O          20.2390   73.2426   -1.7734 O.2     1  UNL1       -0.5170
     28 O          21.7623   72.7784    0.3077 O.3     1  UNL1       -0.2858
     29 O          22.9489   71.0849    1.4656 O.3     1  UNL1       -0.3258
     30 O          21.7661   73.3820    4.6867 O.3     1  UNL1       -0.3794
     31 O          24.5188   73.3986    3.8679 O.3     1  UNL1       -0.3794
     32 O          19.9663   72.9912    2.4534 O.3     1  UNL1       -0.3775
     33 C          22.1988   73.1449    3.3444 C.3     1  UNL1        0.1715
     34 C          23.5628   72.4537    3.3951 C.3     1  UNL1        0.1694
     35 C          21.1734   72.2597    2.6384 C.3     1  UNL1        0.1967
     36 C          23.9696   71.9286    2.0117 C.3     1  UNL1        0.1761
     37 C          21.6966   71.7514    1.2937 C.3     1  UNL1        0.2704
     38 H          22.4126   73.9439    5.1404 H       1  UNL1        0.2105
     39 H          24.2499   73.7228    4.7419 H       1  UNL1        0.2105
     40 H          19.6452   73.3073    3.3118 H       1  UNL1        0.2106
     41 O          24.9867   69.9142    2.7971 O.3     1  UNL1       -0.3794
     42 C          25.2506   71.0992    2.0688 C.3     1  UNL1        0.1693
     43 H          25.7931   69.3762    2.8413 H       1  UNL1        0.2105
@<TRIPOS>UNITY_ATOM_ATTR
2 1
charge -1
26 1
charge -1
@<TRIPOS>BOND
     1    25    28    1
     2    25    24    1
     3    25    26    1
     4    25    27    2
     5     1     4    1
     6     1    24    1
     7     1     2    1
     8     1     3    2
     9     6    11    1
    10     6    12    1
    11    29    36    1
    12    29    37    1
    13     7     9    1
    14     7    13    1
    15     8    10    1
    16     8    14    1
    17    28    37    1
    18     4     5    1
    19    30    33    1
    20    30    38    1
    21    31    34    1
    22    31    39    1
    23    32    35    1
    24    32    40    1
    25    41    42    1
    26    41    43    1
    27    15    19    2
    28    16    22    2
    29    17    12    1
    30    17    19   ar
    31    17    20   ar
    32    18    19   ar
    33    18    22   ar
    34    18    23    1
    35     9    10    1
    36     9    11    1
    37    10    12    1
    38    11     5    1
    39    33    34    1
    40    33    35    1
    41    34    36    1
    42    35    37    1
    43    36    42    1
    44    20    21   ar
    45    21    22   ar
@<TRIPOS>MOLECULE
*****
 43 45 0 0 0
SMALL
GASTEIGER

@<TRIPOS>ATOM
      1 P          20.8614   71.5576   -1.8608 P.3     1  UNL1        0.2189
      2 O          19.8264   70.5917   -1.0777 O.co2   1  UNL1       -0.4371
      3 O          20.4740   73.0068   -1.8945 O.2     1  UNL1       -0.5170
      4 O          21.0429   70.8451   -3.3020 O.3     1  UNL1       -0.3112
      5 C          20.0735   69.8977   -3.7148 C.3     1  UNL1        0.1811
      6 O          18.4509   71.2951   -4.8048 O.3     1  UNL1       -0.3308
      7 O          16.4426   70.1158   -2.9161 O.3     1  UNL1       -0.3794
      8 O          15.9856   68.7228   -5.2155 O.3     1  UNL1       -0.3779
      9 C          17.5672   69.4971   -3.5391 C.3     1  UNL1        0.1713
     10 C          17.2825   69.2429   -5.0046 C.3     1  UNL1        0.1895
     11 C          18.6902   70.5245   -3.6068 C.3     1  UNL1        0.1764
     12 C          17.4622   70.6267   -5.6052 C.3     1  UNL1        0.2383
     13 H          15.7125   69.4787   -2.8613 H       1  UNL1        0.2105
     14 H          15.9215   67.8416   -4.8152 H       1  UNL1        0.2106
     15 O          15.7708   70.3133   -7.8455 O.2     1  UNL1       -0.2464
     16 O          19.3240   70.4532  -10.7775 O.2     1  UNL1       -0.2670
     17 N          17.9185   70.5783   -6.9656 N.ar    1  UNL1       -0.2551
     18 N          17.5414   70.3834   -9.3036 N.ar    1  UNL1       -0.2743
     19 C          16.9871   70.4170   -8.0177 C.ar    1  UNL1        0.3323
     20 C          19.2761   70.6906   -7.2456 C.ar    1  UNL1        0.0869
     21 C          19.7887   70.6553   -8.4773 C.ar    1  UNL1        0.0795
     22 C          18.8835   70.4895   -9.6328 C.ar    1  UNL1        0.2626
     23 H          16.9115   70.2714  -10.0523 H       1  UNL1        0.1734
     24 O          22.2687   71.2544   -1.1257 O.3     1  UNL1       -0.2703
     25 P          22.6436   71.1364    0.4423 P.3     1  UNL1        0.2208
     26 O          24.2511   70.9540    0.4267 O.co2   1  UNL1       -0.4371
     27 O          21.9044   70.0524    1.1718 O.2     1  UNL1       -0.5170
     28 O          22.4075   72.6204    1.0315 O.3     1  UNL1       -0.2858
     29 O          23.6555   73.9684    2.5287 O.3     1  UNL1       -0.3258
     30 O          19.8500   74.8318    3.8792 O.3     1  UNL1       -0.3794
     31 O          21.3146   76.8133    2.4037 O.3     1  UNL1       -0.3794
     32 O          20.5089   72.1404    3.0416 O.3     1  UNL1       -0.3775
     33 C          20.8463   74.5211    2.9013 C.3     1  UNL1        0.1715
     34 C          21.9042   75.6261    2.9266 C.3     1  UNL1        0.1694
     35 C          21.4726   73.1694    3.2389 C.3     1  UNL1        0.1967
     36 C          23.1361   75.2327    2.1004 C.3     1  UNL1        0.1761
     37 C          22.7189   72.8976    2.3944 C.3     1  UNL1        0.2704
     38 H          19.4481   75.6887    3.6703 H       1  UNL1        0.2105
     39 H          20.5376   77.0505    2.9340 H       1  UNL1        0.2105
     40 H          19.7251   72.3238    3.5817 H       1  UNL1        0.2106
     41 O          23.9094   77.1847    3.2408 O.3     1  UNL1       -0.3794
     42 C          24.2667   76.2497    2.2396 C.3     1  UNL1        0.1693
     43 H          24.6199   77.8381    3.3406 H       1  UNL1        0.2105
@<TRIPOS>UNITY_ATOM_ATTR
2 1
charge -1
26 1
charge -1
@<TRIPOS>BOND
     1    25    28    1
     2    25    24    1
     3    25    26    1
     4    25    27    2
     5     1     4    1
     6     1    24    1
     7     1     2    1
     8     1     3    2
     9     6    11    1
    10     6    12    1
    11    29    36    1
    12    29    37    1
    13     7     9    1
    14     7    13    1
    15     8    10    1
    16     8    14    1
    17    28    37    1
    18     4     5    1
    19    30    33    1
    20    30    38    1
    21    31    34    1
    22    31    39    1
    23    32    35    1
    24    32    40    1
    25    41    42    1
    26    41    43    1
    27    15    19    2
    28    16    22    2
    29    17    12    1
    30    17    19   ar
    31    17    20   ar
    32    18    19   ar
    33    18    22   ar
    34    18    23    1
    35     9    10    1
    36     9    11    1
    37    10    12    1
    38    11     5    1
    39    33    34    1
    40    33    35    1
    41    34    36    1
    42    35    37    1
    43    36    42    1
    44    20    21   ar
    45    21    22   ar
@<TRIPOS>MOLECULE
*****
 43 45 0 0 0
SMALL
GASTEIGER

@<TRIPOS>ATOM
      1 P          23.4380   71.8314   -3.2879 P.3     1  UNL1        0.2189
      2 O          24.1275   72.9365   -4.2474 O.co2   1  UNL1       -0.4371
      3 O          24.2995   70.6458   -2.9657 O.2     1  UNL1       -0.5170
      4 O          22.0343   71.5012   -4.0218 O.3     1  UNL1       -0.3112
      5 C          21.5502   72.4100   -4.9952 C.3     1  UNL1        0.1811
      6 O          20.5362   70.4817   -6.0086 O.3     1  UNL1       -0.3308
      7 O          20.8018   71.9432   -8.6133 O.3     1  UNL1       -0.3794
      8 O          18.1749   72.3198   -7.9855 O.3     1  UNL1       -0.3779
      9 C          20.5080   72.4582   -7.3157 C.3     1  UNL1        0.1713
     10 C          19.0854   72.1168   -6.9242 C.3     1  UNL1        0.1895
     11 C          21.3173   71.6611   -6.3003 C.3     1  UNL1        0.1764
     12 C          19.2090   70.6544   -6.5315 C.3     1  UNL1        0.2383
     13 H          20.2966   72.4369   -9.2789 H       1  UNL1        0.2105
     14 H          18.1315   73.2651   -8.1982 H       1  UNL1        0.2106
     15 O          16.5658   69.8153   -7.0679 O.2     1  UNL1       -0.2464
     16 O          15.6493   69.2259   -2.5898 O.2     1  UNL1       -0.2670
     17 N          18.2582   70.2754   -5.5247 N.ar    1  UNL1       -0.2551
     18 N          16.1116   69.5224   -4.8377 N.ar    1  UNL1       -0.2743
     19 C          16.9560   69.8702   -5.8999 C.ar    1  UNL1        0.3323
     20 C          18.6203   70.3073   -4.1825 C.ar    1  UNL1        0.0869
     21 C          17.8029   69.9737   -3.1816 C.ar    1  UNL1        0.0795
     22 C          16.4248   69.5390   -3.4878 C.ar    1  UNL1        0.2626
     23 H          15.1994   69.2373   -5.0751 H       1  UNL1        0.1734
     24 O          22.9809   72.6998   -2.0034 O.3     1  UNL1       -0.2703
     25 P          21.7368   72.5182   -0.9874 P.3     1  UNL1        0.2208
     26 O          21.5910   70.9117   -0.8627 O.co2   1  UNL1       -0.4371
     27 O          20.4827   73.2222   -1.4183 O.2     1  UNL1       -0.5170
     28 O          22.3087   72.9882    0.4468 O.3     1  UNL1       -0.2858
     29 O          22.8275   75.2883    0.6850 O.3     1  UNL1       -0.3258
     30 O          24.9014   73.8044    3.9327 O.3     1  UNL1       -0.3794
     31 O          22.4869   75.3007    4.3555 O.3     1  UNL1       -0.3794
     32 O          24.8386   72.3102    1.4542 O.3     1  UNL1       -0.3775
     33 C          23.8278   73.8661    2.9900 C.3     1  UNL1        0.1715
     34 C          23.1671   75.2413    3.1049 C.3     1  UNL1        0.1694
     35 C          24.3853   73.6534    1.5838 C.3     1  UNL1        0.1967
     36 C          22.1852   75.4824    1.9505 C.3     1  UNL1        0.1761
     37 C          23.3426   73.9671    0.5093 C.3     1  UNL1        0.2704
     38 H          24.5541   73.9382    4.8277 H       1  UNL1        0.2105
     39 H          23.1180   75.1464    5.0760 H       1  UNL1        0.2105
     40 H          25.4983   72.1241    2.1397 H       1  UNL1        0.2106
     41 O          20.2813   76.8663    1.5393 O.3     1  UNL1       -0.3794
     42 C          21.6334   76.9064    1.9569 C.3     1  UNL1        0.1693
     43 H          19.9169   77.7657    1.5388 H       1  UNL1        0.2105
@<TRIPOS>UNITY_ATOM_ATTR
2 1
charge -1
26 1
charge -1
@<TRIPOS>BOND
     1    25    28    1
     2    25    24    1
     3    25    26    1
     4    25    27    2
     5     1     4    1
     6     1    24    1
     7     1     2    1
     8     1     3    2
     9     6    11    1
    10     6    12    1
    11    29    36    1
    12    29    37    1
    13     7     9    1
    14     7    13    1
    15     8    10    1
    16     8    14    1
    17    28    37    1
    18     4     5    1
    19    30    33    1
    20    30    38    1
    21    31    34    1
    22    31    39    1
    23    32    35    1
    24    32    40    1
    25    41    42    1
    26    41    43    1
    27    15    19    2
    28    16    22    2
    29    17    12    1
    30    17    19   ar
    31    17    20   ar
    32    18    19   ar
    33    18    22   ar
    34    18    23    1
    35     9    10    1
    36     9    11    1
    37    10    12    1
    38    11     5    1
    39    33    34    1
    40    33    35    1
    41    34    36    1
    42    35    37    1
    43    36    42    1
    44    20    21   ar
    45    21    22   ar
@<TRIPOS>MOLECULE
*****
 43 45 0 0 0
SMALL
GASTEIGER

@<TRIPOS>ATOM
      1 P          21.5254   72.5137   -4.7659 P.3     1  UNL1        0.2189
      2 O          21.4852   74.1218   -4.5938 O.co2   1  UNL1       -0.4371
      3 O          22.3771   72.0185   -5.8976 O.2     1  UNL1       -0.5170
      4 O          19.9648   72.0901   -4.8234 O.3     1  UNL1       -0.3112
      5 C          19.4267   71.3439   -3.7458 C.3     1  UNL1        0.1811
      6 O          17.5496   71.7373   -5.1933 O.3     1  UNL1       -0.3308
      7 O          15.9335   70.1673   -3.2149 O.3     1  UNL1       -0.3794
      8 O          16.3841   68.3455   -5.1935 O.3     1  UNL1       -0.3779
      9 C          17.2847   69.9757   -3.6306 C.3     1  UNL1        0.1713
     10 C          17.3274   69.3839   -5.0239 C.3     1  UNL1        0.1895
     11 C          17.9076   71.3489   -3.8490 C.3     1  UNL1        0.1764
     12 C          17.0255   70.5951   -5.8900 C.3     1  UNL1        0.2383
     13 H          15.5148   69.3040   -3.0689 H       1  UNL1        0.2105
     14 H          16.6195   67.5982   -4.6218 H       1  UNL1        0.2106
     15 O          15.6230   70.6732   -8.3405 O.2     1  UNL1       -0.2464
     16 O          19.5078   70.2681  -10.7871 O.2     1  UNL1       -0.2670
     17 N          17.6454   70.5124   -7.1824 N.ar    1  UNL1       -0.2551
     18 N          17.5585   70.4716   -9.5567 N.ar    1  UNL1       -0.2743
     19 C          16.8505   70.5601   -8.3513 C.ar    1  UNL1        0.3323
     20 C          19.0267   70.3858   -7.2817 C.ar    1  UNL1        0.0869
     21 C          19.6864   70.3013   -8.4388 C.ar    1  UNL1        0.0795
     22 C          18.9302   70.3435   -9.7070 C.ar    1  UNL1        0.2626
     23 H          17.0255   70.5023  -10.3842 H       1  UNL1        0.1734
     24 O          21.9868   72.0030   -3.3033 O.3     1  UNL1       -0.2703
     25 P          23.4449   71.9534   -2.6074 P.3     1  UNL1        0.2208
     26 O          24.1375   73.3306   -3.0986 O.co2   1  UNL1       -0.4371
     27 O          24.2352   70.7163   -2.9221 O.2     1  UNL1       -0.5170
     28 O          23.1556   72.1805   -1.0359 O.3     1  UNL1       -0.2858
     29 O          24.3498   71.0645    0.6802 O.3     1  UNL1       -0.3258
     30 O          20.8210   71.7919    2.6976 O.3     1  UNL1       -0.3794
     31 O          23.1746   73.2937    3.3707 O.3     1  UNL1       -0.3794
     32 O          20.7590   71.0583   -0.1020 O.3     1  UNL1       -0.3775
     33 C          21.8762   72.0744    1.7744 C.3     1  UNL1        0.1715
     34 C          23.1925   72.1275    2.5523 C.3     1  UNL1        0.1694
     35 C          21.9211   70.9741    0.7158 C.3     1  UNL1        0.1967
     36 C          24.3968   72.1602    1.6016 C.3     1  UNL1        0.1761
     37 C          23.1827   71.0690   -0.1442 C.3     1  UNL1        0.2704
     38 H          20.7867   72.4871    3.3721 H       1  UNL1        0.2105
     39 H          22.4092   73.2608    3.9659 H       1  UNL1        0.2105
     40 H          19.9673   70.9967    0.4541 H       1  UNL1        0.2106
     41 O          26.2373   70.7481    2.1737 O.3     1  UNL1       -0.3794
     42 C          25.7219   72.0544    2.3533 C.3     1  UNL1        0.1693
     43 H          27.0809   70.6662    2.6464 H       1  UNL1        0.2105
@<TRIPOS>UNITY_ATOM_ATTR
2 1
charge -1
26 1
charge -1
@<TRIPOS>BOND
     1    25    28    1
     2    25    24    1
     3    25    26    1
     4    25    27    2
     5     1     4    1
     6     1    24    1
     7     1     2    1
     8     1     3    2
     9     6    11    1
    10     6    12    1
    11    29    36    1
    12    29    37    1
    13     7     9    1
    14     7    13    1
    15     8    10    1
    16     8    14    1
    17    28    37    1
    18     4     5    1
    19    30    33    1
    20    30    38    1
    21    31    34    1
    22    31    39    1
    23    32    35    1
    24    32    40    1
    25    41    42    1
    26    41    43    1
    27    15    19    2
    28    16    22    2
    29    17    12    1
    30    17    19   ar
    31    17    20   ar
    32    18    19   ar
    33    18    22   ar
    34    18    23    1
    35     9    10    1
    36     9    11    1
    37    10    12    1
    38    11     5    1
    39    33    34    1
    40    33    35    1
    41    34    36    1
    42    35    37    1
    43    36    42    1
    44    20    21   ar
    45    21    22   ar
@<TRIPOS>MOLECULE
*****
 43 45 0 0 0
SMALL
GASTEIGER

@<TRIPOS>ATOM
      1 P          21.3678   73.3630   -4.4882 P.3     1  UNL1        0.2189
      2 O          21.4145   74.9403   -4.1317 O.co2   1  UNL1       -0.4371
      3 O          21.5947   73.0330   -5.9343 O.2     1  UNL1       -0.5170
      4 O          19.9591   72.8658   -3.8668 O.3     1  UNL1       -0.3112
      5 C          18.7707   73.5191   -4.2778 C.3     1  UNL1        0.1811
      6 O          17.0236   72.2337   -5.3119 O.3     1  UNL1       -0.3308
      7 O          16.8188   70.7643   -2.7062 O.3     1  UNL1       -0.3794
      8 O          18.2581   69.0380   -4.2505 O.3     1  UNL1       -0.3779
      9 C          17.9753   71.2831   -3.3610 C.3     1  UNL1        0.1713
     10 C          18.3401   70.4169   -4.5485 C.3     1  UNL1        0.1895
     11 C          17.5862   72.5947   -4.0315 C.3     1  UNL1        0.1764
     12 C          17.3166   70.8533   -5.5830 C.3     1  UNL1        0.2383
     13 H          17.0427   69.9266   -2.2703 H       1  UNL1        0.2105
     14 H          18.9288   68.8098   -3.5881 H       1  UNL1        0.2106
     15 O          15.6909   70.4056   -7.8490 O.2     1  UNL1       -0.2464
     16 O          19.3234   70.4212  -10.6855 O.2     1  UNL1       -0.2670
     17 N          17.8111   70.7366   -6.9259 N.ar    1  UNL1       -0.2551
     18 N          17.5009   70.4139   -9.2595 N.ar    1  UNL1       -0.2743
     19 C          16.9107   70.5110   -7.9930 C.ar    1  UNL1        0.3323
     20 C          19.1751   70.8460   -7.1740 C.ar    1  UNL1        0.0869
     21 C          19.7221   70.7498   -8.3875 C.ar    1  UNL1        0.0795
     22 C          18.8508   70.5145   -9.5569 C.ar    1  UNL1        0.2626
     23 H          16.8931   70.2565  -10.0181 H       1  UNL1        0.1734
     24 O          22.4559   72.7289   -3.4748 O.3     1  UNL1       -0.2703
     25 P          22.5679   71.2529   -2.8253 P.3     1  UNL1        0.2208
     26 O          24.1320   70.8834   -3.0113 O.co2   1  UNL1       -0.4371
     27 O          21.6200   70.2482   -3.4135 O.2     1  UNL1       -0.5170
     28 O          22.3910   71.4903   -1.2386 O.3     1  UNL1       -0.2858
     29 O          23.7610   73.3120   -0.5896 O.3     1  UNL1       -0.3258
     30 O          22.3979   72.1530    3.1318 O.3     1  UNL1       -0.3794
     31 O          21.4072   74.5759    1.9503 O.3     1  UNL1       -0.3794
     32 O          23.0389   70.1516    1.1411 O.3     1  UNL1       -0.3775
     33 C          22.3080   72.3720    1.7214 C.3     1  UNL1        0.1715
     34 C          22.5345   73.8609    1.4519 C.3     1  UNL1        0.1694
     35 C          23.3703   71.5304    1.0168 C.3     1  UNL1        0.1967
     36 C          22.7181   74.1308   -0.0476 C.3     1  UNL1        0.1761
     37 C          23.5066   71.9121   -0.4583 C.3     1  UNL1        0.2704
     38 H          21.7256   72.6841    3.5851 H       1  UNL1        0.2105
     39 H          21.3021   74.3964    2.8979 H       1  UNL1        0.2105
     40 H          22.9558   69.9224    2.0794 H       1  UNL1        0.2106
     41 O          24.0959   75.6007   -1.3321 O.3     1  UNL1       -0.3794
     42 C          23.1015   75.5829   -0.3246 C.3     1  UNL1        0.1693
     43 H          24.3495   76.5186   -1.5190 H       1  UNL1        0.2105
@<TRIPOS>UNITY_ATOM_ATTR
2 1
charge -1
26 1
charge -1
@<TRIPOS>BOND
     1    25    28    1
     2    25    24    1
     3    25    26    1
     4    25    27    2
     5     1     4    1
     6     1    24    1
     7     1     2    1
     8     1     3    2
     9     6    11    1
    10     6    12    1
    11    29    36    1
    12    29    37    1
    13     7     9    1
    14     7    13    1
    15     8    10    1
    16     8    14    1
    17    28    37    1
    18     4     5    1
    19    30    33    1
    20    30    38    1
    21    31    34    1
    22    31    39    1
    23    32    35    1
    24    32    40    1
    25    41    42    1
    26    41    43    1
    27    15    19    2
    28    16    22    2
    29    17    12    1
    30    17    19   ar
    31    17    20   ar
    32    18    19   ar
    33    18    22   ar
    34    18    23    1
    35     9    10    1
    36     9    11    1
    37    10    12    1
    38    11     5    1
    39    33    34    1
    40    33    35    1
    41    34    36    1
    42    35    37    1
    43    36    42    1
    44    20    21   ar
    45    21    22   ar
@<TRIPOS>MOLECULE
*****
 43 45 0 0 0
SMALL
GASTEIGER

@<TRIPOS>ATOM
      1 P          20.5756   71.6899   -1.9530 P.3     1  UNL1        0.2189
      2 O          19.9529   70.6169   -0.9146 O.co2   1  UNL1       -0.4371
      3 O          20.5218   73.1183   -1.4967 O.2     1  UNL1       -0.5170
      4 O          19.8170   71.3682   -3.3455 O.3     1  UNL1       -0.3112
      5 C          19.1006   70.1510   -3.4596 C.3     1  UNL1        0.1811
      6 O          17.4254   71.2067   -4.8208 O.3     1  UNL1       -0.3308
      7 O          15.4280   69.5508   -3.3179 O.3     1  UNL1       -0.3794
      8 O          15.6923   68.1814   -5.6612 O.3     1  UNL1       -0.3779
      9 C          16.7511   69.2134   -3.7311 C.3     1  UNL1        0.1713
     10 C          16.7872   68.9602   -5.2238 C.3     1  UNL1        0.1895
     11 C          17.6164   70.4604   -3.5989 C.3     1  UNL1        0.1764
     12 C          16.7609   70.3723   -5.7836 C.3     1  UNL1        0.2383
     13 H          14.8568   68.7698   -3.3932 H       1  UNL1        0.2105
     14 H          15.7542   67.2924   -5.2783 H       1  UNL1        0.2106
     15 O          15.4733   70.5396   -8.2920 O.2     1  UNL1       -0.2464
     16 O          19.4885   70.7638  -10.5435 O.2     1  UNL1       -0.2670
     17 N          17.4454   70.4756   -7.0415 N.ar    1  UNL1       -0.2551
     18 N          17.4736   70.6513   -9.4110 N.ar    1  UNL1       -0.2743
     19 C          16.7051   70.5531   -8.2441 C.ar    1  UNL1        0.3323
     20 C          18.8355   70.4996   -7.0741 C.ar    1  UNL1        0.0869
     21 C          19.5534   70.5924   -8.1953 C.ar    1  UNL1        0.0795
     22 C          18.8567   70.6777   -9.4950 C.ar    1  UNL1        0.2626
     23 H          16.9793   70.7061  -10.2610 H       1  UNL1        0.1734
     24 O          22.0667   71.1221   -2.2120 O.3     1  UNL1       -0.2703
     25 P          23.2936   71.7179   -3.0795 P.3     1  UNL1        0.2208
     26 O          22.6428   71.9306   -4.5454 O.co2   1  UNL1       -0.4371
     27 O          24.5276   70.8629   -3.0680 O.2     1  UNL1       -0.5170
     28 O          23.5098   73.2121   -2.5088 O.3     1  UNL1       -0.2858
     29 O          22.3154   75.2213   -2.9002 O.3     1  UNL1       -0.3258
     30 O          26.1487   76.7497   -2.7569 O.3     1  UNL1       -0.3794
     31 O          24.3439   77.2410   -0.5776 O.3     1  UNL1       -0.3794
     32 O          25.6603   74.1923   -4.0220 O.3     1  UNL1       -0.3775
     33 C          25.0828   75.8688   -2.3920 C.3     1  UNL1        0.1715
     34 C          23.9336   76.7115   -1.8352 C.3     1  UNL1        0.1694
     35 C          24.6310   75.0932   -3.6279 C.3     1  UNL1        0.1967
     36 C          22.6596   75.8717   -1.6713 C.3     1  UNL1        0.1761
     37 C          23.3292   74.3316   -3.3722 C.3     1  UNL1        0.2704
     38 H          26.4406   77.2449   -1.9764 H       1  UNL1        0.2105
     39 H          25.1494   77.7688   -0.6949 H       1  UNL1        0.2105
     40 H          26.4790   74.6866   -4.1812 H       1  UNL1        0.2106
     41 O          21.5174   76.9493    0.1295 O.3     1  UNL1       -0.3794
     42 C          21.4597   76.7255   -1.2672 C.3     1  UNL1        0.1693
     43 H          20.7600   77.4918    0.4010 H       1  UNL1        0.2105
@<TRIPOS>UNITY_ATOM_ATTR
2 1
charge -1
26 1
charge -1
@<TRIPOS>BOND
     1    25    28    1
     2    25    24    1
     3    25    26    1
     4    25    27    2
     5     1     4    1
     6     1    24    1
     7     1     2    1
     8     1     3    2
     9     6    11    1
    10     6    12    1
    11    29    36    1
    12    29    37    1
    13     7     9    1
    14     7    13    1
    15     8    10    1
    16     8    14    1
    17    28    37    1
    18     4     5    1
    19    30    33    1
    20    30    38    1
    21    31    34    1
    22    31    39    1
    23    32    35    1
    24    32    40    1
    25    41    42    1
    26    41    43    1
    27    15    19    2
    28    16    22    2
    29    17    12    1
    30    17    19   ar
    31    17    20   ar
    32    18    19   ar
    33    18    22   ar
    34    18    23    1
    35     9    10    1
    36     9    11    1
    37    10    12    1
    38    11     5    1
    39    33    34    1
    40    33    35    1
    41    34    36    1
    42    35    37    1
    43    36    42    1
    44    20    21   ar
    45    21    22   ar
@<TRIPOS>MOLECULE
*****
 43 45 0 0 0
SMALL
GASTEIGER

@<TRIPOS>ATOM
      1 P          23.0222   71.5819   -2.7307 P.3     1  UNL1        0.2189
      2 O          23.2393   73.1399   -2.3523 O.co2   1  UNL1       -0.4371
      3 O          24.2554   70.8650   -3.1963 O.2     1  UNL1       -0.5170
      4 O          21.7862   71.6043   -3.7745 O.3     1  UNL1       -0.3112
      5 C          20.8648   70.5280   -3.7545 C.3     1  UNL1        0.1811
      6 O          19.0326   71.7628   -4.6991 O.3     1  UNL1       -0.3308
      7 O          17.3522   70.5749   -2.5183 O.3     1  UNL1       -0.3794
      8 O          16.7106   69.0296   -4.6716 O.3     1  UNL1       -0.3779
      9 C          18.4305   69.9899   -3.2465 C.3     1  UNL1        0.1713
     10 C          17.9864   69.6369   -4.6507 C.3     1  UNL1        0.1895
     11 C          19.4667   71.0767   -3.5045 C.3     1  UNL1        0.1764
     12 C          17.9998   70.9928   -5.3357 C.3     1  UNL1        0.2383
     13 H          16.6778   69.8997   -2.3414 H       1  UNL1        0.2105
     14 H          16.7541   68.1702   -4.2241 H       1  UNL1        0.2106
     15 O          16.4756   72.2261   -7.3689 O.2     1  UNL1       -0.2464
     16 O          19.2014   70.5468  -10.6842 O.2     1  UNL1       -0.2670
     17 N          18.2888   70.8949   -6.7386 N.ar    1  UNL1       -0.2551
     18 N          17.8342   71.3891   -9.0180 N.ar    1  UNL1       -0.2743
     19 C          17.4600   71.5516   -7.6780 C.ar    1  UNL1        0.3323
     20 C          19.3838   70.1543   -7.1705 C.ar    1  UNL1        0.0869
     21 C          19.7262   70.0082   -8.4522 C.ar    1  UNL1        0.0795
     22 C          18.9125   70.6623   -9.4972 C.ar    1  UNL1        0.2626
     23 H          17.2712   71.8373   -9.6902 H       1  UNL1        0.1734
     24 O          22.3551   70.9720   -1.3906 O.3     1  UNL1       -0.2703
     25 P          21.5512   71.6877   -0.1846 P.3     1  UNL1        0.2208
     26 O          20.9616   70.4402    0.6601 O.co2   1  UNL1       -0.4371
     27 O          20.5143   72.6748   -0.6367 O.2     1  UNL1       -0.5170
     28 O          22.7019   72.3118    0.7596 O.3     1  UNL1       -0.2858
     29 O          21.3546   73.9304    1.8467 O.3     1  UNL1       -0.3258
     30 O          24.6465   74.0314    4.3375 O.3     1  UNL1       -0.3794
     31 O          22.2141   72.8079    5.2511 O.3     1  UNL1       -0.3794
     32 O          25.0064   73.7420    1.4799 O.3     1  UNL1       -0.3775
     33 C          23.6876   73.4210    3.4696 C.3     1  UNL1        0.1715
     34 C          22.2976   73.6141    4.0792 C.3     1  UNL1        0.1694
     35 C          23.7679   74.0810    2.0943 C.3     1  UNL1        0.1967
     36 C          21.1969   73.2248    3.0832 C.3     1  UNL1        0.1761
     37 C          22.6000   73.6639    1.1986 C.3     1  UNL1        0.2704
     38 H          24.6010   73.6166    5.2124 H       1  UNL1        0.2105
     39 H          22.9148   73.0635    5.8715 H       1  UNL1        0.2105
     40 H          25.7377   74.0114    2.0565 H       1  UNL1        0.2106
     41 O          19.7975   74.9048    4.0466 O.3     1  UNL1       -0.3794
     42 C          19.8034   73.5574    3.6120 C.3     1  UNL1        0.1693
     43 H          18.9166   75.1306    4.3855 H       1  UNL1        0.2105
@<TRIPOS>UNITY_ATOM_ATTR
2 1
charge -1
26 1
charge -1
@<TRIPOS>BOND
     1    25    28    1
     2    25    24    1
     3    25    26    1
     4    25    27    2
     5     1     4    1
     6     1    24    1
     7     1     2    1
     8     1     3    2
     9     6    11    1
    10     6    12    1
    11    29    36    1
    12    29    37    1
    13     7     9    1
    14     7    13    1
    15     8    10    1
    16     8    14    1
    17    28    37    1
    18     4     5    1
    19    30    33    1
    20    30    38    1
    21    31    34    1
    22    31    39    1
    23    32    35    1
    24    32    40    1
    25    41    42    1
    26    41    43    1
    27    15    19    2
    28    16    22    2
    29    17    12    1
    30    17    19   ar
    31    17    20   ar
    32    18    19   ar
    33    18    22   ar
    34    18    23    1
    35     9    10    1
    36     9    11    1
    37    10    12    1
    38    11     5    1
    39    33    34    1
    40    33    35    1
    41    34    36    1
    42    35    37    1
    43    36    42    1
    44    20    21   ar
    45    21    22   ar
@<TRIPOS>MOLECULE
*****
 43 45 0 0 0
SMALL
GASTEIGER

@<TRIPOS>ATOM
      1 P          22.7420   71.6793   -3.3730 P.3     1  UNL1        0.2189
      2 O          22.4798   71.8180   -4.9634 O.co2   1  UNL1       -0.4371
      3 O          23.9906   70.9361   -2.9990 O.2     1  UNL1       -0.5170
      4 O          21.3593   71.0613   -2.8038 O.3     1  UNL1       -0.3112
      5 C          20.5230   70.3425   -3.6938 C.3     1  UNL1        0.1811
      6 O          18.6739   71.4957   -4.7061 O.3     1  UNL1       -0.3308
      7 O          16.9548   70.1613   -2.6434 O.3     1  UNL1       -0.3794
      8 O          16.5143   68.6365   -4.8610 O.3     1  UNL1       -0.3779
      9 C          18.1008   69.6561   -3.3265 C.3     1  UNL1        0.1713
     10 C          17.7503   69.3137   -4.7595 C.3     1  UNL1        0.1895
     11 C          19.0848   70.8055   -3.5056 C.3     1  UNL1        0.1764
     12 C          17.7210   70.6850   -5.4130 C.3     1  UNL1        0.2383
     13 H          16.3120   69.4451   -2.5171 H       1  UNL1        0.2105
     14 H          16.5839   67.7700   -4.4307 H       1  UNL1        0.2106
     15 O          15.9456   70.0309   -7.5101 O.2     1  UNL1       -0.2464
     16 O          19.2353   70.5362  -10.6983 O.2     1  UNL1       -0.2670
     17 N          18.0868   70.6384   -6.8006 N.ar    1  UNL1       -0.2551
     18 N          17.5850   70.2832   -9.0959 N.ar    1  UNL1       -0.2743
     19 C          17.1197   70.2978   -7.7748 C.ar    1  UNL1        0.3323
     20 C          19.3918   70.9287   -7.1833 C.ar    1  UNL1        0.0869
     21 C          19.8199   70.9091   -8.4473 C.ar    1  UNL1        0.0795
     22 C          18.8723   70.5630   -9.5263 C.ar    1  UNL1        0.2626
     23 H          16.9289   70.0483   -9.7917 H       1  UNL1        0.1734
     24 O          22.6926   73.2119   -2.8615 O.3     1  UNL1       -0.2703
     25 P          21.7564   73.9334   -1.7588 P.3     1  UNL1        0.2208
     26 O          20.3768   73.0919   -1.8356 O.co2   1  UNL1       -0.4371
     27 O          21.5924   75.4116   -1.9631 O.2     1  UNL1       -0.5170
     28 O          22.4060   73.5224   -0.3396 O.3     1  UNL1       -0.2858
     29 O          24.6271   74.0588    0.2897 O.3     1  UNL1       -0.3258
     30 O          24.0848   70.6793    2.5996 O.3     1  UNL1       -0.3794
     31 O          24.1364   73.2618    3.8552 O.3     1  UNL1       -0.3794
     32 O          22.9885   70.7898   -0.0772 O.3     1  UNL1       -0.3775
     33 C          23.6892   71.8894    1.9480 C.3     1  UNL1        0.1715
     34 C          24.5366   73.0341    2.5067 C.3     1  UNL1        0.1694
     35 C          23.9102   71.7414    0.4437 C.3     1  UNL1        0.1967
     36 C          24.3605   74.3112    1.6742 C.3     1  UNL1        0.1761
     37 C          23.7593   73.0788   -0.2835 C.3     1  UNL1        0.2704
     38 H          23.9465   70.7664    3.5551 H       1  UNL1        0.2105
     39 H          24.2521   72.4476    4.3699 H       1  UNL1        0.2105
     40 H          23.0942   69.9476    0.3911 H       1  UNL1        0.2106
     41 O          25.7057   75.1664    3.4542 O.3     1  UNL1       -0.3794
     42 C          25.3140   75.4188    2.1173 C.3     1  UNL1        0.1693
     43 H          26.3130   75.8632    3.7495 H       1  UNL1        0.2105
@<TRIPOS>UNITY_ATOM_ATTR
2 1
charge -1
26 1
charge -1
@<TRIPOS>BOND
     1    25    28    1
     2    25    24    1
     3    25    26    1
     4    25    27    2
     5     1     4    1
     6     1    24    1
     7     1     2    1
     8     1     3    2
     9     6    11    1
    10     6    12    1
    11    29    36    1
    12    29    37    1
    13     7     9    1
    14     7    13    1
    15     8    10    1
    16     8    14    1
    17    28    37    1
    18     4     5    1
    19    30    33    1
    20    30    38    1
    21    31    34    1
    22    31    39    1
    23    32    35    1
    24    32    40    1
    25    41    42    1
    26    41    43    1
    27    15    19    2
    28    16    22    2
    29    17    12    1
    30    17    19   ar
    31    17    20   ar
    32    18    19   ar
    33    18    22   ar
    34    18    23    1
    35     9    10    1
    36     9    11    1
    37    10    12    1
    38    11     5    1
    39    33    34    1
    40    33    35    1
    41    34    36    1
    42    35    37    1
    43    36    42    1
    44    20    21   ar
    45    21    22   ar
@<TRIPOS>MOLECULE
*****
 43 45 0 0 0
SMALL
GASTEIGER

@<TRIPOS>ATOM
      1 P          23.0576   71.5568   -2.8007 P.3     1  UNL1        0.2189
      2 O          23.2080   73.1676   -2.8109 O.co2   1  UNL1       -0.4371
      3 O          24.3229   70.8004   -3.0803 O.2     1  UNL1       -0.5170
      4 O          21.8311   71.2748   -3.8175 O.3     1  UNL1       -0.3112
      5 C          21.5190   72.2575   -4.7895 C.3     1  UNL1        0.1811
      6 O          20.4361   70.4146   -5.8872 O.3     1  UNL1       -0.3308
      7 O          20.7856   71.9664   -8.4290 O.3     1  UNL1       -0.3794
      8 O          18.1706   72.4262   -7.8066 O.3     1  UNL1       -0.3779
      9 C          20.5012   72.4410   -7.1140 C.3     1  UNL1        0.1713
     10 C          19.0622   72.1436   -6.7473 C.3     1  UNL1        0.1895
     11 C          21.2676   71.5714   -6.1252 C.3     1  UNL1        0.1764
     12 C          19.1219   70.6628   -6.4128 C.3     1  UNL1        0.2383
     13 H          20.3073   72.5066   -9.0780 H       1  UNL1        0.2105
     14 H          18.1681   73.3802   -7.9814 H       1  UNL1        0.2106
     15 O          16.5040   69.7898   -7.0147 O.2     1  UNL1       -0.2464
     16 O          15.4674   69.2360   -2.5582 O.2     1  UNL1       -0.2670
     17 N          18.1471   70.2838   -5.4293 N.ar    1  UNL1       -0.2551
     18 N          15.9900   69.5146   -4.7952 N.ar    1  UNL1       -0.2743
     19 C          16.8604   69.8608   -5.8367 C.ar    1  UNL1        0.3323
     20 C          18.4708   70.3333   -4.0778 C.ar    1  UNL1        0.0869
     21 C          17.6289   70.0010   -3.0969 C.ar    1  UNL1        0.0795
     22 C          16.2646   69.5483   -3.4373 C.ar    1  UNL1        0.2626
     23 H          15.0879   69.2173   -5.0552 H       1  UNL1        0.1734
     24 O          22.4037   71.2620   -1.3521 O.3     1  UNL1       -0.2703
     25 P          22.9879   71.4763    0.1398 P.3     1  UNL1        0.2208
     26 O          23.0959   73.0854    0.2684 O.co2   1  UNL1       -0.4371
     27 O          24.2718   70.7460    0.4087 O.2     1  UNL1       -0.5170
     28 O          21.7699   71.0700    1.1178 O.3     1  UNL1       -0.2858
     29 O          21.1266   72.2102    3.0933 O.3     1  UNL1       -0.3258
     30 O          22.5063   75.4230    0.8966 O.3     1  UNL1       -0.3794
     31 O          24.0500   74.4556    3.1168 O.3     1  UNL1       -0.3794
     32 O          21.0342   73.3031   -0.4142 O.3     1  UNL1       -0.3775
     33 C          22.4862   74.0665    1.3493 C.3     1  UNL1        0.1715
     34 C          22.7039   74.0631    2.8637 C.3     1  UNL1        0.1694
     35 C          21.1364   73.4432    0.9987 C.3     1  UNL1        0.1967
     36 C          22.4310   72.6754    3.4594 C.3     1  UNL1        0.1761
     37 C          20.9461   72.0874    1.6811 C.3     1  UNL1        0.2704
     38 H          23.3609   75.8245    1.1157 H       1  UNL1        0.2105
     39 H          24.2094   75.3332    2.7351 H       1  UNL1        0.2105
     40 H          21.1562   74.1682   -0.8345 H       1  UNL1        0.2106
     41 O          21.3257   73.3297    5.4741 O.3     1  UNL1       -0.3794
     42 C          22.4884   72.6867    4.9854 C.3     1  UNL1        0.1693
     43 H          21.3484   73.3440    6.4442 H       1  UNL1        0.2105
@<TRIPOS>UNITY_ATOM_ATTR
2 1
charge -1
26 1
charge -1
@<TRIPOS>BOND
     1    25    28    1
     2    25    24    1
     3    25    26    1
     4    25    27    2
     5     1     4    1
     6     1    24    1
     7     1     2    1
     8     1     3    2
     9     6    11    1
    10     6    12    1
    11    29    36    1
    12    29    37    1
    13     7     9    1
    14     7    13    1
    15     8    10    1
    16     8    14    1
    17    28    37    1
    18     4     5    1
    19    30    33    1
    20    30    38    1
    21    31    34    1
    22    31    39    1
    23    32    35    1
    24    32    40    1
    25    41    42    1
    26    41    43    1
    27    15    19    2
    28    16    22    2
    29    17    12    1
    30    17    19   ar
    31    17    20   ar
    32    18    19   ar
    33    18    22   ar
    34    18    23    1
    35     9    10    1
    36     9    11    1
    37    10    12    1
    38    11     5    1
    39    33    34    1
    40    33    35    1
    41    34    36    1
    42    35    37    1
    43    36    42    1
    44    20    21   ar
    45    21    22   ar
@<TRIPOS>MOLECULE
*****
 43 45 0 0 0
SMALL
GASTEIGER

@<TRIPOS>ATOM
      1 P          23.0488   71.3382   -2.5343 P.3     1  UNL1        0.2189
      2 O          22.7414   72.9258   -2.4834 O.co2   1  UNL1       -0.4371
      3 O          24.4099   70.9724   -3.0491 O.2     1  UNL1       -0.5170
      4 O          21.7980   70.7267   -3.3586 O.3     1  UNL1       -0.3112
      5 C          21.0632   71.5885   -4.2101 C.3     1  UNL1        0.1811
      6 O          21.1710   71.0972   -6.5598 O.3     1  UNL1       -0.3308
      7 O          23.0487   73.4255   -6.7698 O.3     1  UNL1       -0.3794
      8 O          20.6936   74.4797   -7.6521 O.3     1  UNL1       -0.3779
      9 C          21.9055   73.2611   -5.9324 C.3     1  UNL1        0.1713
     10 C          20.6346   73.3982   -6.7446 C.3     1  UNL1        0.1895
     11 C          21.8487   71.8022   -5.4968 C.3     1  UNL1        0.1764
     12 C          20.5609   72.0515   -7.4439 C.3     1  UNL1        0.2383
     13 H          23.1063   74.3497   -7.0603 H       1  UNL1        0.2105
     14 H          20.7393   75.3137   -7.1590 H       1  UNL1        0.2106
     15 O          19.7321   70.6836   -9.7720 O.2     1  UNL1       -0.2464
     16 O          15.3502   70.5429   -8.3508 O.2     1  UNL1       -0.2670
     17 N          19.2095   71.6449   -7.7081 N.ar    1  UNL1       -0.2551
     18 N          17.5510   70.6145   -9.0624 N.ar    1  UNL1       -0.2743
     19 C          18.8986   70.9641   -8.9082 C.ar    1  UNL1        0.3323
     20 C          18.2091   71.9213   -6.7824 C.ar    1  UNL1        0.0869
     21 C          16.9286   71.5823   -6.9450 C.ar    1  UNL1        0.0795
     22 C          16.5198   70.8682   -8.1718 C.ar    1  UNL1        0.2626
     23 H          17.3108   70.1398   -9.8911 H       1  UNL1        0.1734
     24 O          22.7525   70.8619   -1.0183 O.3     1  UNL1       -0.2703
     25 P          21.4437   71.0394   -0.0864 P.3     1  UNL1        0.2208
     26 O          21.7590   70.0854    1.1817 O.co2   1  UNL1       -0.4371
     27 O          20.1478   70.7373   -0.7815 O.2     1  UNL1       -0.5170
     28 O          21.5567   72.5408    0.4950 O.3     1  UNL1       -0.2858
     29 O          23.3825   73.8038    1.3243 O.3     1  UNL1       -0.3258
     30 O          20.4939   74.9585    4.0397 O.3     1  UNL1       -0.3794
     31 O          21.3761   76.8139    2.0330 O.3     1  UNL1       -0.3794
     32 O          20.5881   72.2191    3.1091 O.3     1  UNL1       -0.3775
     33 C          20.9962   74.5669    2.7592 C.3     1  UNL1        0.1715
     34 C          22.0463   75.5903    2.3225 C.3     1  UNL1        0.1694
     35 C          21.6156   73.1750    2.8703 C.3     1  UNL1        0.1967
     36 C          22.8192   75.0999    1.0908 C.3     1  UNL1        0.1761
     37 C          22.4022   72.8047    1.6116 C.3     1  UNL1        0.2704
     38 H          20.0989   75.8413    3.9760 H       1  UNL1        0.2105
     39 H          20.8916   77.1125    2.8187 H       1  UNL1        0.2105
     40 H          20.0978   72.4645    3.9085 H       1  UNL1        0.2106
     41 O          24.1586   76.0014   -0.6705 O.3     1  UNL1       -0.3794
     42 C          23.9755   76.0311    0.7330 C.3     1  UNL1        0.1693
     43 H          24.8913   76.5897   -0.9129 H       1  UNL1        0.2105
@<TRIPOS>UNITY_ATOM_ATTR
2 1
charge -1
26 1
charge -1
@<TRIPOS>BOND
     1    25    28    1
     2    25    24    1
     3    25    26    1
     4    25    27    2
     5     1     4    1
     6     1    24    1
     7     1     2    1
     8     1     3    2
     9     6    11    1
    10     6    12    1
    11    29    36    1
    12    29    37    1
    13     7     9    1
    14     7    13    1
    15     8    10    1
    16     8    14    1
    17    28    37    1
    18     4     5    1
    19    30    33    1
    20    30    38    1
    21    31    34    1
    22    31    39    1
    23    32    35    1
    24    32    40    1
    25    41    42    1
    26    41    43    1
    27    15    19    2
    28    16    22    2
    29    17    12    1
    30    17    19   ar
    31    17    20   ar
    32    18    19   ar
    33    18    22   ar
    34    18    23    1
    35     9    10    1
    36     9    11    1
    37    10    12    1
    38    11     5    1
    39    33    34    1
    40    33    35    1
    41    34    36    1
    42    35    37    1
    43    36    42    1
    44    20    21   ar
    45    21    22   ar
@<TRIPOS>MOLECULE
*****
 43 45 0 0 0
SMALL
GASTEIGER

@<TRIPOS>ATOM
      1 P          21.7462   71.3700   -0.1092 P.3     1  UNL1        0.2189
      2 O          23.1828   71.0978   -0.8018 O.co2   1  UNL1       -0.4371
      3 O          21.1966   70.2203    0.6830 O.2     1  UNL1       -0.5170
      4 O          20.8190   71.8895   -1.3292 O.3     1  UNL1       -0.3112
      5 C          20.4187   70.9574   -2.3186 C.3     1  UNL1        0.1811
      6 O          20.9872   70.1075   -4.4930 O.3     1  UNL1       -0.3308
      7 O          23.2593   72.0638   -4.4576 O.3     1  UNL1       -0.3794
      8 O          21.4178   73.3199   -6.0284 O.3     1  UNL1       -0.3779
      9 C          21.9401   72.2036   -3.9327 C.3     1  UNL1        0.1713
     10 C          20.9460   72.4091   -5.0566 C.3     1  UNL1        0.1895
     11 C          21.5123   70.8527   -3.3727 C.3     1  UNL1        0.1764
     12 C          20.7917   70.9997   -5.6023 C.3     1  UNL1        0.2383
     13 H          23.5544   72.9141   -4.8207 H       1  UNL1        0.2105
     14 H          21.4991   74.2018   -5.6328 H       1  UNL1        0.2106
     15 O          20.1180   71.4438   -8.3091 O.2     1  UNL1       -0.2464
     16 O          15.7665   70.0805   -7.6400 O.2     1  UNL1       -0.2670
     17 N          19.4902   70.7688   -6.1627 N.ar    1  UNL1       -0.2551
     18 N          17.9519   70.7644   -7.9738 N.ar    1  UNL1       -0.2743
     19 C          19.2560   71.0246   -7.5339 C.ar    1  UNL1        0.3323
     20 C          18.4624   70.2936   -5.3553 C.ar    1  UNL1        0.0869
     21 C          17.2239   70.0518   -5.7899 C.ar    1  UNL1        0.0795
     22 C          16.8960   70.2930   -7.2099 C.ar    1  UNL1        0.2626
     23 H          17.7654   70.9357   -8.9255 H       1  UNL1        0.1734
     24 O          22.0052   72.7153    0.7486 O.3     1  UNL1       -0.2703
     25 P          21.1258   73.4219    1.9063 P.3     1  UNL1        0.2208
     26 O          20.5044   72.1678    2.7178 O.co2   1  UNL1       -0.4371
     27 O          20.1043   74.3960    1.3949 O.2     1  UNL1       -0.5170
     28 O          22.2136   74.0604    2.9133 O.3     1  UNL1       -0.2858
     29 O          23.6056   72.2000    3.3796 O.3     1  UNL1       -0.3258
     30 O          25.7231   75.1263    5.3805 O.3     1  UNL1       -0.3794
     31 O          26.7586   74.0549    2.9253 O.3     1  UNL1       -0.3794
     32 O          22.8288   75.1537    5.4235 O.3     1  UNL1       -0.3775
     33 C          24.9038   74.5951    4.3355 C.3     1  UNL1        0.1715
     34 C          25.6769   73.4698    3.6450 C.3     1  UNL1        0.1694
     35 C          23.6059   74.0632    4.9404 C.3     1  UNL1        0.1967
     36 C          24.7699   72.6765    2.6947 C.3     1  UNL1        0.1761
     37 C          22.8023   73.2480    3.9255 C.3     1  UNL1        0.2704
     38 H          26.5487   75.4661    5.0031 H       1  UNL1        0.2105
     39 H          27.3234   74.5533    3.5368 H       1  UNL1        0.2105
     40 H          23.3485   75.6616    6.0653 H       1  UNL1        0.2106
     41 O          24.7839   70.2928    2.5321 O.3     1  UNL1       -0.3794
     42 C          25.4783   71.4540    2.1154 C.3     1  UNL1        0.1693
     43 H          25.2234   69.5068    2.1706 H       1  UNL1        0.2105
@<TRIPOS>UNITY_ATOM_ATTR
2 1
charge -1
26 1
charge -1
@<TRIPOS>BOND
     1    25    28    1
     2    25    24    1
     3    25    26    1
     4    25    27    2
     5     1     4    1
     6     1    24    1
     7     1     2    1
     8     1     3    2
     9     6    11    1
    10     6    12    1
    11    29    36    1
    12    29    37    1
    13     7     9    1
    14     7    13    1
    15     8    10    1
    16     8    14    1
    17    28    37    1
    18     4     5    1
    19    30    33    1
    20    30    38    1
    21    31    34    1
    22    31    39    1
    23    32    35    1
    24    32    40    1
    25    41    42    1
    26    41    43    1
    27    15    19    2
    28    16    22    2
    29    17    12    1
    30    17    19   ar
    31    17    20   ar
    32    18    19   ar
    33    18    22   ar
    34    18    23    1
    35     9    10    1
    36     9    11    1
    37    10    12    1
    38    11     5    1
    39    33    34    1
    40    33    35    1
    41    34    36    1
    42    35    37    1
    43    36    42    1
    44    20    21   ar
    45    21    22   ar
@<TRIPOS>MOLECULE
*****
 43 45 0 0 0
SMALL
GASTEIGER

@<TRIPOS>ATOM
      1 P          21.3241   75.5057   -1.2135 P.3     1  UNL1        0.2189
      2 O          22.1259   76.4753   -2.2307 O.co2   1  UNL1       -0.4371
      3 O          20.1955   76.1596   -0.4718 O.2     1  UNL1       -0.5170
      4 O          22.4882   74.8595   -0.2942 O.3     1  UNL1       -0.3112
      5 C          22.2911   74.8067    1.1081 C.3     1  UNL1        0.1811
      6 O          22.7870   72.4670    1.3396 O.3     1  UNL1       -0.3308
      7 O          20.3098   72.2998    3.0207 O.3     1  UNL1       -0.3794
      8 O          22.2946   72.3493    4.8901 O.3     1  UNL1       -0.3779
      9 C          21.2679   73.3528    2.9280 C.3     1  UNL1        0.1713
     10 C          22.5453   72.9660    3.6437 C.3     1  UNL1        0.1895
     11 C          21.7295   73.4409    1.4787 C.3     1  UNL1        0.1764
     12 C          23.1931   72.0228    2.6444 C.3     1  UNL1        0.2383
     13 H          20.0001   72.2245    3.9374 H       1  UNL1        0.2105
     14 H          21.8824   72.9896    5.4908 H       1  UNL1        0.2106
     15 O          24.8584   69.8245    2.0344 O.2     1  UNL1       -0.2464
     16 O          28.6797   72.2253    2.9696 O.2     1  UNL1       -0.2670
     17 N          24.6267   72.0457    2.7196 N.ar    1  UNL1       -0.2551
     18 N          26.7598   71.0218    2.5004 N.ar    1  UNL1       -0.2743
     19 C          25.3697   70.8874    2.3928 C.ar    1  UNL1        0.3323
     20 C          25.2815   73.2076    3.1134 C.ar    1  UNL1        0.0869
     21 C          26.6078   73.3190    3.2121 C.ar    1  UNL1        0.0795
     22 C          27.4573   72.1547    2.8885 C.ar    1  UNL1        0.2626
     23 H          27.2979   70.2275    2.2781 H       1  UNL1        0.1734
     24 O          20.8818   74.2721   -2.1599 O.3     1  UNL1       -0.2703
     25 P          21.7558   73.1120   -2.8693 P.3     1  UNL1        0.2208
     26 O          21.5824   71.8525   -1.8687 O.co2   1  UNL1       -0.4371
     27 O          23.1817   73.4950   -3.1413 O.2     1  UNL1       -0.5170
     28 O          20.9094   72.7084   -4.1830 O.3     1  UNL1       -0.2858
     29 O          20.0395   70.6608   -4.9998 O.3     1  UNL1       -0.3258
     30 O          21.4638   72.2328   -8.5426 O.3     1  UNL1       -0.3794
     31 O          18.6323   72.1303   -8.0738 O.3     1  UNL1       -0.3794
     32 O          22.9621   72.6019   -6.0935 O.3     1  UNL1       -0.3775
     33 C          20.8700   72.2786   -7.2423 C.3     1  UNL1        0.1715
     34 C          19.5883   71.4437   -7.2708 C.3     1  UNL1        0.1694
     35 C          21.8572   71.7138   -6.2226 C.3     1  UNL1        0.1967
     36 C          19.0383   71.2248   -5.8549 C.3     1  UNL1        0.1761
     37 C          21.1962   71.4884   -4.8616 C.3     1  UNL1        0.2704
     38 H          20.8423   72.5905   -9.1948 H       1  UNL1        0.2105
     39 H          18.9921   72.2626   -8.9650 H       1  UNL1        0.2105
     40 H          23.3721   72.7362   -6.9617 H       1  UNL1        0.2106
     41 O          16.7576   70.9086   -5.2164 O.3     1  UNL1       -0.3794
     42 C          17.8507   70.2647   -5.8448 C.3     1  UNL1        0.1693
     43 H          15.9944   70.3094   -5.2030 H       1  UNL1        0.2105
@<TRIPOS>UNITY_ATOM_ATTR
2 1
charge -1
26 1
charge -1
@<TRIPOS>BOND
     1    25    28    1
     2    25    24    1
     3    25    26    1
     4    25    27    2
     5     1     4    1
     6     1    24    1
     7     1     2    1
     8     1     3    2
     9     6    11    1
    10     6    12    1
    11    29    36    1
    12    29    37    1
    13     7     9    1
    14     7    13    1
    15     8    10    1
    16     8    14    1
    17    28    37    1
    18     4     5    1
    19    30    33    1
    20    30    38    1
    21    31    34    1
    22    31    39    1
    23    32    35    1
    24    32    40    1
    25    41    42    1
    26    41    43    1
    27    15    19    2
    28    16    22    2
    29    17    12    1
    30    17    19   ar
    31    17    20   ar
    32    18    19   ar
    33    18    22   ar
    34    18    23    1
    35     9    10    1
    36     9    11    1
    37    10    12    1
    38    11     5    1
    39    33    34    1
    40    33    35    1
    41    34    36    1
    42    35    37    1
    43    36    42    1
    44    20    21   ar
    45    21    22   ar
@<TRIPOS>MOLECULE
*****
 43 45 0 0 0
SMALL
GASTEIGER

@<TRIPOS>ATOM
      1 P          23.0986   73.1332   -4.0494 P.3     1  UNL1        0.2189
      2 O          23.9269   71.7552   -3.8690 O.co2   1  UNL1       -0.4371
      3 O          23.8700   74.2594   -4.6725 O.2     1  UNL1       -0.5170
      4 O          22.5005   73.4229   -2.5742 O.3     1  UNL1       -0.3112
      5 C          21.5122   74.4281   -2.4307 C.3     1  UNL1        0.1811
      6 O          20.8078   72.6454   -0.9817 O.3     1  UNL1       -0.3308
      7 O          18.6423   74.5026   -0.0586 O.3     1  UNL1       -0.3794
      8 O          20.4762   74.6821    1.9517 O.3     1  UNL1       -0.3779
      9 C          19.9883   74.7987   -0.4273 C.3     1  UNL1        0.1713
     10 C          20.9422   74.3495    0.6598 C.3     1  UNL1        0.1895
     11 C          20.3702   73.8833   -1.5838 C.3     1  UNL1        0.1764
     12 C          21.0006   72.8492    0.4276 C.3     1  UNL1        0.2383
     13 H          18.3757   75.0752    0.6782 H       1  UNL1        0.2105
     14 H          20.4571   75.6468    2.0503 H       1  UNL1        0.2106
     15 O          21.4245   70.1097    0.9689 O.2     1  UNL1       -0.2464
     16 O          25.8869   70.7952    1.8953 O.2     1  UNL1       -0.2670
     17 N          22.2633   72.2843    0.8120 N.ar    1  UNL1       -0.2551
     18 N          23.6461   70.4532    1.4296 N.ar    1  UNL1       -0.2743
     19 C          22.3692   70.8962    1.0620 C.ar    1  UNL1        0.3323
     20 C          23.3798   73.1038    0.9372 C.ar    1  UNL1        0.0869
     21 C          24.5903   72.6659    1.2899 C.ar    1  UNL1        0.0795
     22 C          24.7863   71.2287    1.5688 C.ar    1  UNL1        0.2626
     23 H          23.7437   69.4899    1.6091 H       1  UNL1        0.1734
     24 O          21.7955   72.6673   -4.8847 O.3     1  UNL1       -0.2703
     25 P          21.1093   73.2837   -6.2122 P.3     1  UNL1        0.2208
     26 O          22.0753   72.7675   -7.4030 O.co2   1  UNL1       -0.4371
     27 O          20.9178   74.7721   -6.1715 O.2     1  UNL1       -0.5170
     28 O          19.7467   72.4388   -6.3976 O.3     1  UNL1       -0.2858
     29 O          19.0548   70.2822   -5.6996 O.3     1  UNL1       -0.3258
     30 O          17.5273   70.2558   -9.5359 O.3     1  UNL1       -0.3794
     31 O          15.7405   70.4908   -7.2998 O.3     1  UNL1       -0.3794
     32 O          20.0961   71.4835   -9.0130 O.3     1  UNL1       -0.3775
     33 C          17.8927   70.8406   -8.2830 C.3     1  UNL1        0.1715
     34 C          17.1130   70.1285   -7.1758 C.3     1  UNL1        0.1694
     35 C          19.3967   70.6739   -8.0740 C.3     1  UNL1        0.1967
     36 C          17.6441   70.5137   -5.7885 C.3     1  UNL1        0.1761
     37 C          19.8124   71.0371   -6.6473 C.3     1  UNL1        0.2704
     38 H          16.5736   70.3587   -9.6749 H       1  UNL1        0.2105
     39 H          15.4176   70.2427   -8.1803 H       1  UNL1        0.2105
     40 H          19.8245   71.2436   -9.9122 H       1  UNL1        0.2106
     41 O          16.1391   68.7314   -5.2713 O.3     1  UNL1       -0.3794
     42 C          16.9872   69.6972   -4.6777 C.3     1  UNL1        0.1693
     43 H          15.7144   68.2041   -4.5761 H       1  UNL1        0.2105
@<TRIPOS>UNITY_ATOM_ATTR
2 1
charge -1
26 1
charge -1
@<TRIPOS>BOND
     1    25    28    1
     2    25    24    1
     3    25    26    1
     4    25    27    2
     5     1     4    1
     6     1    24    1
     7     1     2    1
     8     1     3    2
     9     6    11    1
    10     6    12    1
    11    29    36    1
    12    29    37    1
    13     7     9    1
    14     7    13    1
    15     8    10    1
    16     8    14    1
    17    28    37    1
    18     4     5    1
    19    30    33    1
    20    30    38    1
    21    31    34    1
    22    31    39    1
    23    32    35    1
    24    32    40    1
    25    41    42    1
    26    41    43    1
    27    15    19    2
    28    16    22    2
    29    17    12    1
    30    17    19   ar
    31    17    20   ar
    32    18    19   ar
    33    18    22   ar
    34    18    23    1
    35     9    10    1
    36     9    11    1
    37    10    12    1
    38    11     5    1
    39    33    34    1
    40    33    35    1
    41    34    36    1
    42    35    37    1
    43    36    42    1
    44    20    21   ar
    45    21    22   ar
@<TRIPOS>MOLECULE
*****
 43 45 0 0 0
SMALL
GASTEIGER

@<TRIPOS>ATOM
      1 P          20.8879   74.3511   -3.5463 P.3     1  UNL1        0.2189
      2 O          21.4706   75.2487   -2.3329 O.co2   1  UNL1       -0.4371
      3 O          20.5413   75.1153   -4.7902 O.2     1  UNL1       -0.5170
      4 O          19.6738   73.5234   -2.8689 O.3     1  UNL1       -0.3112
      5 C          18.5550   73.1867   -3.6706 C.3     1  UNL1        0.1811
      6 O          17.4819   71.1952   -4.4807 O.3     1  UNL1       -0.3308
      7 O          18.6946   69.8052   -2.1167 O.3     1  UNL1       -0.3794
      8 O          20.3605   69.0816   -4.1508 O.3     1  UNL1       -0.3779
      9 C          19.2340   70.8517   -2.9225 C.3     1  UNL1        0.1713
     10 C          19.6694   70.3085   -4.2675 C.3     1  UNL1        0.1895
     11 C          18.0914   71.7821   -3.3100 C.3     1  UNL1        0.1764
     12 C          18.3428   70.1655   -4.9939 C.3     1  UNL1        0.2383
     13 H          19.4059   69.1983   -1.8566 H       1  UNL1        0.2105
     14 H          21.1974   69.2250   -3.6819 H       1  UNL1        0.2106
     15 O          16.3348   69.5161   -6.8712 O.2     1  UNL1       -0.2464
     16 O          18.9613   70.8489  -10.4161 O.2     1  UNL1       -0.2670
     17 N          18.4750   70.3330   -6.4137 N.ar    1  UNL1       -0.2551
     18 N          17.6442   70.1804   -8.6347 N.ar    1  UNL1       -0.2743
     19 C          17.4073   69.9751   -7.2695 C.ar    1  UNL1        0.3323
     20 C          19.6531   70.8473   -6.9441 C.ar    1  UNL1        0.0869
     21 C          19.8637   71.0358   -8.2485 C.ar    1  UNL1        0.0795
     22 C          18.7983   70.6874   -9.2106 C.ar    1  UNL1        0.2626
     23 H          16.9145   69.9379   -9.2500 H       1  UNL1        0.1734
     24 O          22.0294   73.2240   -3.7453 O.3     1  UNL1       -0.2703
     25 P          23.3200   72.8500   -2.8468 P.3     1  UNL1        0.2208
     26 O          24.2118   74.1989   -2.8987 O.co2   1  UNL1       -0.4371
     27 O          24.0429   71.6122   -3.2932 O.2     1  UNL1       -0.5170
     28 O          22.7608   72.7891   -1.3340 O.3     1  UNL1       -0.2858
     29 O          23.5007   70.8606   -0.1720 O.3     1  UNL1       -0.3258
     30 O          20.6611   72.1985    2.5108 O.3     1  UNL1       -0.3794
     31 O          23.4491   72.4640    3.1469 O.3     1  UNL1       -0.3794
     32 O          20.1676   72.4001   -0.3344 O.3     1  UNL1       -0.3775
     33 C          21.6922   72.3342    1.5291 C.3     1  UNL1        0.1715
     34 C          22.9598   71.6697    2.0699 C.3     1  UNL1        0.1694
     35 C          21.2414   71.6591    0.2351 C.3     1  UNL1        0.1967
     36 C          24.0269   71.5385    0.9749 C.3     1  UNL1        0.1761
     37 C          22.3903   71.5350   -0.7672 C.3     1  UNL1        0.2704
     38 H          20.9408   72.6255    3.3348 H       1  UNL1        0.2105
     39 H          22.7656   72.5394    3.8312 H       1  UNL1        0.2105
     40 H          19.4466   72.4713    0.3097 H       1  UNL1        0.2106
     41 O          24.8789   70.0336    2.6236 O.3     1  UNL1       -0.3794
     42 C          25.2379   70.7383    1.4493 C.3     1  UNL1        0.1693
     43 H          25.6400   69.5195    2.9369 H       1  UNL1        0.2105
@<TRIPOS>UNITY_ATOM_ATTR
2 1
charge -1
26 1
charge -1
@<TRIPOS>BOND
     1    25    28    1
     2    25    24    1
     3    25    26    1
     4    25    27    2
     5     1     4    1
     6     1    24    1
     7     1     2    1
     8     1     3    2
     9     6    11    1
    10     6    12    1
    11    29    36    1
    12    29    37    1
    13     7     9    1
    14     7    13    1
    15     8    10    1
    16     8    14    1
    17    28    37    1
    18     4     5    1
    19    30    33    1
    20    30    38    1
    21    31    34    1
    22    31    39    1
    23    32    35    1
    24    32    40    1
    25    41    42    1
    26    41    43    1
    27    15    19    2
    28    16    22    2
    29    17    12    1
    30    17    19   ar
    31    17    20   ar
    32    18    19   ar
    33    18    22   ar
    34    18    23    1
    35     9    10    1
    36     9    11    1
    37    10    12    1
    38    11     5    1
    39    33    34    1
    40    33    35    1
    41    34    36    1
    42    35    37    1
    43    36    42    1
    44    20    21   ar
    45    21    22   ar
@<TRIPOS>MOLECULE
*****
 43 45 0 0 0
SMALL
GASTEIGER

@<TRIPOS>ATOM
      1 P          20.5761   71.9485   -1.9019 P.3     1  UNL1        0.2189
      2 O          20.3094   70.6208   -1.0167 O.co2   1  UNL1       -0.4371
      3 O          20.2214   73.2413   -1.2279 O.2     1  UNL1       -0.5170
      4 O          19.8080   71.6480   -3.2939 O.3     1  UNL1       -0.3112
      5 C          19.1055   70.4248   -3.4281 C.3     1  UNL1        0.1811
      6 O          17.4319   71.4020   -4.8486 O.3     1  UNL1       -0.3308
      7 O          15.4345   69.8187   -3.2693 O.3     1  UNL1       -0.3794
      8 O          15.7131   68.3305   -5.5373 O.3     1  UNL1       -0.3779
      9 C          16.7605   69.4654   -3.6594 C.3     1  UNL1        0.1713
     10 C          16.8035   69.1352   -5.1368 C.3     1  UNL1        0.1895
     11 C          17.6207   70.7209   -3.5890 C.3     1  UNL1        0.1764
     12 C          16.7743   70.5162   -5.7693 C.3     1  UNL1        0.2383
     13 H          14.8665   69.0327   -3.3061 H       1  UNL1        0.2105
     14 H          15.7767   67.4628   -5.1085 H       1  UNL1        0.2106
     15 O          15.4957   70.5664   -8.2874 O.2     1  UNL1       -0.2464
     16 O          19.5192   70.6695  -10.5328 O.2     1  UNL1       -0.2670
     17 N          17.4634   70.5567   -7.0283 N.ar    1  UNL1       -0.2551
     18 N          17.5002   70.6179   -9.4034 N.ar    1  UNL1       -0.2743
     19 C          16.7273   70.5783   -8.2358 C.ar    1  UNL1        0.3323
     20 C          18.8536   70.5749   -7.0570 C.ar    1  UNL1        0.0869
     21 C          19.5756   70.6113   -8.1789 C.ar    1  UNL1        0.0795
     22 C          18.8836   70.6360   -9.4837 C.ar    1  UNL1        0.2626
     23 H          17.0090   70.6331  -10.2568 H       1  UNL1        0.1734
     24 O          22.1341   71.8073   -2.3087 O.3     1  UNL1       -0.2703
     25 P          23.1781   72.8884   -2.9037 P.3     1  UNL1        0.2208
     26 O          24.1918   71.9819   -3.7802 O.co2   1  UNL1       -0.4371
     27 O          23.8485   73.7351   -1.8608 O.2     1  UNL1       -0.5170
     28 O          22.3277   73.7199   -3.9948 O.3     1  UNL1       -0.2858
     29 O          23.2905   75.4540   -5.2919 O.3     1  UNL1       -0.3258
     30 O          19.3397   76.6475   -5.4235 O.3     1  UNL1       -0.3794
     31 O          20.5632   75.5331   -7.7706 O.3     1  UNL1       -0.3794
     32 O          20.4282   75.5236   -2.9880 O.3     1  UNL1       -0.3775
     33 C          20.4161   75.7064   -5.3896 C.3     1  UNL1        0.1715
     34 C          21.2965   75.9403   -6.6188 C.3     1  UNL1        0.1694
     35 C          21.2188   75.9120   -4.1063 C.3     1  UNL1        0.1967
     36 C          22.6107   75.1545   -6.5166 C.3     1  UNL1        0.1761
     37 C          22.5300   75.1244   -4.1280 C.3     1  UNL1        0.2704
     38 H          18.8258   76.5220   -6.2356 H       1  UNL1        0.2105
     39 H          19.7355   76.0364   -7.8232 H       1  UNL1        0.2105
     40 H          19.6012   76.0295   -2.9854 H       1  UNL1        0.2106
     41 O          23.3645   74.5717   -8.7077 O.3     1  UNL1       -0.3794
     42 C          23.5706   75.4950   -7.6545 C.3     1  UNL1        0.1693
     43 H          23.9686   74.7764   -9.4391 H       1  UNL1        0.2105
@<TRIPOS>UNITY_ATOM_ATTR
2 1
charge -1
26 1
charge -1
@<TRIPOS>BOND
     1    25    28    1
     2    25    24    1
     3    25    26    1
     4    25    27    2
     5     1     4    1
     6     1    24    1
     7     1     2    1
     8     1     3    2
     9     6    11    1
    10     6    12    1
    11    29    36    1
    12    29    37    1
    13     7     9    1
    14     7    13    1
    15     8    10    1
    16     8    14    1
    17    28    37    1
    18     4     5    1
    19    30    33    1
    20    30    38    1
    21    31    34    1
    22    31    39    1
    23    32    35    1
    24    32    40    1
    25    41    42    1
    26    41    43    1
    27    15    19    2
    28    16    22    2
    29    17    12    1
    30    17    19   ar
    31    17    20   ar
    32    18    19   ar
    33    18    22   ar
    34    18    23    1
    35     9    10    1
    36     9    11    1
    37    10    12    1
    38    11     5    1
    39    33    34    1
    40    33    35    1
    41    34    36    1
    42    35    37    1
    43    36    42    1
    44    20    21   ar
    45    21    22   ar
@<TRIPOS>MOLECULE
*****
 43 45 0 0 0
SMALL
GASTEIGER

@<TRIPOS>ATOM
      1 P          18.9681   73.5787   -3.3606 P.3     1  UNL1        0.2189
      2 O          18.2380   74.4952   -4.4760 O.co2   1  UNL1       -0.4371
      3 O          18.1905   72.3719   -2.9240 O.2     1  UNL1       -0.5170
      4 O          19.3554   74.6263   -2.1899 O.3     1  UNL1       -0.3112
      5 C          20.3123   74.2342   -1.2212 C.3     1  UNL1        0.1811
      6 O          20.1994   72.5514    0.4903 O.3     1  UNL1       -0.3308
      7 O          18.6136   74.5396    2.0788 O.3     1  UNL1       -0.3794
      8 O          21.0953   74.7327    3.1926 O.3     1  UNL1       -0.3779
      9 C          19.7108   74.7608    1.1942 C.3     1  UNL1        0.1713
     10 C          21.0066   74.3217    1.8435 C.3     1  UNL1        0.1895
     11 C          19.5859   73.7779    0.0368 C.3     1  UNL1        0.1764
     12 C          20.9370   72.8112    1.6959 C.3     1  UNL1        0.2383
     13 H          18.6716   75.1562    2.8261 H       1  UNL1        0.2105
     14 H          21.1371   75.7008    3.2338 H       1  UNL1        0.2106
     15 O          21.3931   70.0989    1.0531 O.2     1  UNL1       -0.2464
     16 O          25.9657   70.6188    1.3028 O.2     1  UNL1       -0.2670
     17 N          22.2366   72.2112    1.5858 N.ar    1  UNL1       -0.2551
     18 N          23.6695   70.3600    1.1778 N.ar    1  UNL1       -0.2743
     19 C          22.3562   70.8403    1.2590 C.ar    1  UNL1        0.3323
     20 C          23.3753   72.9800    1.8007 C.ar    1  UNL1        0.0869
     21 C          24.6206   72.5066    1.7207 C.ar    1  UNL1        0.0795
     22 C          24.8331   71.0841    1.3839 C.ar    1  UNL1        0.2626
     23 H          23.7773   69.4076    0.9518 H       1  UNL1        0.1734
     24 O          20.3971   73.2485   -4.0400 O.3     1  UNL1       -0.2703
     25 P          20.9123   73.4156   -5.5631 P.3     1  UNL1        0.2208
     26 O          22.2690   72.5347   -5.5946 O.co2   1  UNL1       -0.4371
     27 O          21.0892   74.8409   -6.0000 O.2     1  UNL1       -0.5170
     28 O          19.8575   72.5713   -6.4460 O.3     1  UNL1       -0.2858
     29 O          19.1336   70.3251   -6.2293 O.3     1  UNL1       -0.3258
     30 O          19.1708   70.6117  -10.3484 O.3     1  UNL1       -0.3794
     31 O          16.6607   70.5357   -8.9549 O.3     1  UNL1       -0.3794
     32 O          21.2433   71.9014   -8.7925 O.3     1  UNL1       -0.3775
     33 C          18.9881   71.0844   -9.0110 C.3     1  UNL1        0.1715
     34 C          17.9102   70.2284   -8.3429 C.3     1  UNL1        0.1694
     35 C          20.3109   70.9692   -8.2558 C.3     1  UNL1        0.1967
     36 C          17.8463   70.4970   -6.8334 C.3     1  UNL1        0.1761
     37 C          20.1274   71.2066   -6.7558 C.3     1  UNL1        0.2704
     38 H          18.3346   70.6826  -10.8335 H       1  UNL1        0.2105
     39 H          16.7147   70.3622   -9.9079 H       1  UNL1        0.2105
     40 H          21.3509   71.7404   -9.7424 H       1  UNL1        0.2106
     41 O          15.6164   69.6445   -6.7346 O.3     1  UNL1       -0.3794
     42 C          16.8890   69.5427   -6.1227 C.3     1  UNL1        0.1693
     43 H          14.9968   69.0424   -6.2928 H       1  UNL1        0.2105
@<TRIPOS>UNITY_ATOM_ATTR
2 1
charge -1
26 1
charge -1
@<TRIPOS>BOND
     1    25    28    1
     2    25    24    1
     3    25    26    1
     4    25    27    2
     5     1     4    1
     6     1    24    1
     7     1     2    1
     8     1     3    2
     9     6    11    1
    10     6    12    1
    11    29    36    1
    12    29    37    1
    13     7     9    1
    14     7    13    1
    15     8    10    1
    16     8    14    1
    17    28    37    1
    18     4     5    1
    19    30    33    1
    20    30    38    1
    21    31    34    1
    22    31    39    1
    23    32    35    1
    24    32    40    1
    25    41    42    1
    26    41    43    1
    27    15    19    2
    28    16    22    2
    29    17    12    1
    30    17    19   ar
    31    17    20   ar
    32    18    19   ar
    33    18    22   ar
    34    18    23    1
    35     9    10    1
    36     9    11    1
    37    10    12    1
    38    11     5    1
    39    33    34    1
    40    33    35    1
    41    34    36    1
    42    35    37    1
    43    36    42    1
    44    20    21   ar
    45    21    22   ar
@<TRIPOS>MOLECULE
*****
 43 45 0 0 0
SMALL
GASTEIGER

@<TRIPOS>ATOM
      1 P          21.0486   74.9996   -1.3667 P.3     1  UNL1        0.2189
      2 O          21.7965   75.7370   -2.5972 O.co2   1  UNL1       -0.4371
      3 O          20.0026   75.8238   -0.6752 O.2     1  UNL1       -0.5170
      4 O          22.2615   74.4760   -0.4326 O.3     1  UNL1       -0.3112
      5 C          22.1258   74.5817    0.9739 C.3     1  UNL1        0.1811
      6 O          22.6371   72.2837    1.4550 O.3     1  UNL1       -0.3308
      7 O          20.2233   72.3140    3.2337 O.3     1  UNL1       -0.3794
      8 O          22.2747   72.5763    5.0112 O.3     1  UNL1       -0.3779
      9 C          21.1740   73.3483    2.9854 C.3     1  UNL1        0.1713
     10 C          22.4779   73.0451    3.6937 C.3     1  UNL1        0.1895
     11 C          21.5823   73.2684    1.5196 C.3     1  UNL1        0.1764
     12 C          23.0918   71.9923    2.7866 C.3     1  UNL1        0.2383
     13 H          19.9474   72.3451    4.1636 H       1  UNL1        0.2105
     14 H          21.8827   73.2820    5.5488 H       1  UNL1        0.2106
     15 O          24.7424   69.7878    2.1591 O.2     1  UNL1       -0.2464
     16 O          28.5858   72.2220    2.8967 O.2     1  UNL1       -0.2670
     17 N          24.5271   72.0221    2.8062 N.ar    1  UNL1       -0.2551
     18 N          26.6548   71.0017    2.5267 N.ar    1  UNL1       -0.2743
     19 C          25.2622   70.8599    2.4754 C.ar    1  UNL1        0.3323
     20 C          25.1913   73.1944    3.1503 C.ar    1  UNL1        0.0869
     21 C          26.5199   73.3128    3.1957 C.ar    1  UNL1        0.0795
     22 C          27.3616   72.1451    2.8641 C.ar    1  UNL1        0.2626
     23 H          27.1875   70.2049    2.3005 H       1  UNL1        0.1734
     24 O          20.4955   73.6384   -2.0407 O.3     1  UNL1       -0.2703
     25 P          21.2762   72.3430   -2.6111 P.3     1  UNL1        0.2208
     26 O          21.3529   71.3611   -1.3276 O.co2   1  UNL1       -0.4371
     27 O          22.6064   72.6516   -3.2351 O.2     1  UNL1       -0.5170
     28 O          20.2198   71.6339   -3.6042 O.3     1  UNL1       -0.2858
     29 O          20.3206   73.0071   -5.5331 O.3     1  UNL1       -0.3258
     30 O          17.7457   70.0964   -6.9291 O.3     1  UNL1       -0.3794
     31 O          20.4439   70.1906   -7.9082 O.3     1  UNL1       -0.3794
     32 O          17.5479   71.0051   -4.1878 O.3     1  UNL1       -0.3775
     33 C          18.8485   70.6080   -6.1758 C.3     1  UNL1        0.1715
     34 C          19.8444   71.2384   -7.1513 C.3     1  UNL1        0.1694
     35 C          18.3349   71.6497   -5.1836 C.3     1  UNL1        0.1967
     36 C          20.9188   72.0407   -6.4049 C.3     1  UNL1        0.1761
     37 C          19.4826   72.4243   -4.5332 C.3     1  UNL1        0.2704
     38 H          18.0650   69.4341   -7.5607 H       1  UNL1        0.2105
     39 H          19.7548   69.6916   -8.3742 H       1  UNL1        0.2105
     40 H          16.8248   70.5186   -4.6122 H       1  UNL1        0.2106
     41 O          23.1696   72.4320   -7.1044 O.3     1  UNL1       -0.3794
     42 C          21.8290   72.8067   -7.3624 C.3     1  UNL1        0.1693
     43 H          23.7603   72.9115   -7.7068 H       1  UNL1        0.2105
@<TRIPOS>UNITY_ATOM_ATTR
2 1
charge -1
26 1
charge -1
@<TRIPOS>BOND
     1    25    28    1
     2    25    24    1
     3    25    26    1
     4    25    27    2
     5     1     4    1
     6     1    24    1
     7     1     2    1
     8     1     3    2
     9     6    11    1
    10     6    12    1
    11    29    36    1
    12    29    37    1
    13     7     9    1
    14     7    13    1
    15     8    10    1
    16     8    14    1
    17    28    37    1
    18     4     5    1
    19    30    33    1
    20    30    38    1
    21    31    34    1
    22    31    39    1
    23    32    35    1
    24    32    40    1
    25    41    42    1
    26    41    43    1
    27    15    19    2
    28    16    22    2
    29    17    12    1
    30    17    19   ar
    31    17    20   ar
    32    18    19   ar
    33    18    22   ar
    34    18    23    1
    35     9    10    1
    36     9    11    1
    37    10    12    1
    38    11     5    1
    39    33    34    1
    40    33    35    1
    41    34    36    1
    42    35    37    1
    43    36    42    1
    44    20    21   ar
    45    21    22   ar
@<TRIPOS>MOLECULE
*****
 43 45 0 0 0
SMALL
GASTEIGER

@<TRIPOS>ATOM
      1 P          22.7152   72.9229   -3.7461 P.3     1  UNL1        0.2189
      2 O          23.7980   72.8384   -4.9451 O.co2   1  UNL1       -0.4371
      3 O          22.2113   74.3034   -3.4433 O.2     1  UNL1       -0.5170
      4 O          23.4342   72.1524   -2.5184 O.3     1  UNL1       -0.3112
      5 C          23.0958   72.5266   -1.1943 C.3     1  UNL1        0.1811
      6 O          24.2032   71.1668    0.4484 O.3     1  UNL1       -0.3308
      7 O          21.5077   69.9795    1.0100 O.3     1  UNL1       -0.3794
      8 O          21.8160   71.7506    3.0605 O.3     1  UNL1       -0.3779
      9 C          21.8487   71.3218    0.6675 C.3     1  UNL1        0.1713
     10 C          22.4914   72.0187    1.8486 C.3     1  UNL1        0.1895
     11 C          22.9947   71.2735   -0.3354 C.3     1  UNL1        0.1764
     12 C          23.8985   71.4465    1.8245 C.3     1  UNL1        0.2383
     13 H          20.7776   69.9846    1.6494 H       1  UNL1        0.2105
     14 H          20.9260   72.1347    3.0266 H       1  UNL1        0.2106
     15 O          26.5254   70.7328    2.5783 O.2     1  UNL1       -0.2464
     16 O          27.5491   75.0598    3.7911 O.2     1  UNL1       -0.2670
     17 N          24.8728   72.3666    2.3401 N.ar    1  UNL1       -0.2551
     18 N          27.0330   72.8879    3.1814 N.ar    1  UNL1       -0.2743
     19 C          26.1635   71.9060    2.6897 C.ar    1  UNL1        0.3323
     20 C          24.5446   73.7091    2.4942 C.ar    1  UNL1        0.0869
     21 C          25.3848   74.6326    2.9658 C.ar    1  UNL1        0.0795
     22 C          26.7532   74.2342    3.3542 C.ar    1  UNL1        0.2626
     23 H          27.9377   72.5902    3.4318 H       1  UNL1        0.1734
     24 O          21.5740   71.8774   -4.2126 O.3     1  UNL1       -0.2703
     25 P          20.1661   71.4690   -3.5315 P.3     1  UNL1        0.2208
     26 O          19.6697   72.8494   -2.8492 O.co2   1  UNL1       -0.4371
     27 O          20.2546   70.3071   -2.5849 O.2     1  UNL1       -0.5170
     28 O          19.1611   71.2441   -4.7742 O.3     1  UNL1       -0.2858
     29 O          19.2624   72.0251   -7.0095 O.3     1  UNL1       -0.3258
     30 O          15.1904   72.3208   -6.3913 O.3     1  UNL1       -0.3794
     31 O          16.2195   70.2488   -8.0930 O.3     1  UNL1       -0.3794
     32 O          17.0274   72.9920   -4.2572 O.3     1  UNL1       -0.3775
     33 C          16.4918   71.7454   -6.2472 C.3     1  UNL1        0.1715
     34 C          16.9982   71.3511   -7.6360 C.3     1  UNL1        0.1694
     35 C          17.4236   72.7724   -5.6067 C.3     1  UNL1        0.1967
     36 C          18.4855   70.9750   -7.5972 C.3     1  UNL1        0.1761
     37 C          18.8846   72.3227   -5.6639 C.3     1  UNL1        0.2704
     38 H          14.5937   71.6735   -6.7970 H       1  UNL1        0.2105
     39 H          15.2824   70.4993   -8.1124 H       1  UNL1        0.2105
     40 H          16.1009   73.2766   -4.2345 H       1  UNL1        0.2106
     41 O          18.1974   71.3513   -9.9390 O.3     1  UNL1       -0.3794
     42 C          19.0504   70.7308   -8.9948 C.3     1  UNL1        0.1693
     43 H          18.5447   71.2044  -10.8332 H       1  UNL1        0.2105
@<TRIPOS>UNITY_ATOM_ATTR
2 1
charge -1
26 1
charge -1
@<TRIPOS>BOND
     1    25    28    1
     2    25    24    1
     3    25    26    1
     4    25    27    2
     5     1     4    1
     6     1    24    1
     7     1     2    1
     8     1     3    2
     9     6    11    1
    10     6    12    1
    11    29    36    1
    12    29    37    1
    13     7     9    1
    14     7    13    1
    15     8    10    1
    16     8    14    1
    17    28    37    1
    18     4     5    1
    19    30    33    1
    20    30    38    1
    21    31    34    1
    22    31    39    1
    23    32    35    1
    24    32    40    1
    25    41    42    1
    26    41    43    1
    27    15    19    2
    28    16    22    2
    29    17    12    1
    30    17    19   ar
    31    17    20   ar
    32    18    19   ar
    33    18    22   ar
    34    18    23    1
    35     9    10    1
    36     9    11    1
    37    10    12    1
    38    11     5    1
    39    33    34    1
    40    33    35    1
    41    34    36    1
    42    35    37    1
    43    36    42    1
    44    20    21   ar
    45    21    22   ar
@<TRIPOS>MOLECULE
*****
 43 45 0 0 0
SMALL
GASTEIGER

@<TRIPOS>ATOM
      1 P          19.4286   73.4790   -1.7844 P.3     1  UNL1        0.2189
      2 O          17.8992   73.4688   -1.2568 O.co2   1  UNL1       -0.4371
      3 O          20.2184   74.7001   -1.4147 O.2     1  UNL1       -0.5170
      4 O          19.2947   73.1821   -3.3693 O.3     1  UNL1       -0.3112
      5 C          20.2450   73.7589   -4.2479 C.3     1  UNL1        0.1811
      6 O          20.4801   71.5147   -5.0739 O.3     1  UNL1       -0.3308
      7 O          23.2506   72.3091   -5.9012 O.3     1  UNL1       -0.3794
      8 O          21.8670   72.4478   -8.2470 O.3     1  UNL1       -0.3779
      9 C          22.0510   73.0813   -5.9069 C.3     1  UNL1        0.1713
     10 C          21.1513   72.6466   -7.0450 C.3     1  UNL1        0.1895
     11 C          21.2320   72.6850   -4.6848 C.3     1  UNL1        0.1764
     12 C          20.5539   71.3601   -6.5006 C.3     1  UNL1        0.2383
     13 H          23.7904   72.5449   -6.6725 H       1  UNL1        0.2105
     14 H          22.2273   73.2948   -8.5529 H       1  UNL1        0.2106
     15 O          20.0033   69.8561   -8.8271 O.2     1  UNL1       -0.2464
     16 O          15.4581   70.4645   -8.3661 O.2     1  UNL1       -0.2670
     17 N          19.2357   71.1094   -7.0113 N.ar    1  UNL1       -0.2551
     18 N          17.7406   70.1601   -8.5956 N.ar    1  UNL1       -0.2743
     19 C          19.0682   70.3426   -8.1879 C.ar    1  UNL1        0.3323
     20 C          18.1263   71.6212   -6.3471 C.ar    1  UNL1        0.0869
     21 C          16.8668   71.4392   -6.7496 C.ar    1  UNL1        0.0795
     22 C          16.6048   70.6496   -7.9702 C.ar    1  UNL1        0.2626
     23 H          17.5995   69.6295   -9.4131 H       1  UNL1        0.1734
     24 O          20.0226   72.0923   -1.2038 O.3     1  UNL1       -0.2703
     25 P          21.1813   71.8079   -0.1132 P.3     1  UNL1        0.2208
     26 O          22.5452   72.0515   -0.9487 O.co2   1  UNL1       -0.4371
     27 O          21.0901   70.4614    0.5445 O.2     1  UNL1       -0.5170
     28 O          21.0988   73.0569    0.9057 O.3     1  UNL1       -0.2858
     29 O          21.2456   72.5793    3.2223 O.3     1  UNL1       -0.3258
     30 O          19.6327   76.3748    3.4320 O.3     1  UNL1       -0.3794
     31 O          22.3793   75.9591    4.1607 O.3     1  UNL1       -0.3794
     32 O          18.7664   74.5503    1.3583 O.3     1  UNL1       -0.3775
     33 C          20.4516   75.3352    2.8898 C.3     1  UNL1        0.1715
     34 C          21.4476   74.8988    3.9659 C.3     1  UNL1        0.1694
     35 C          19.5623   74.1649    2.4739 C.3     1  UNL1        0.1967
     36 C          22.1789   73.6135    3.5554 C.3     1  UNL1        0.1761
     37 C          20.3868   72.9223    2.1329 C.3     1  UNL1        0.2704
     38 H          20.1912   77.1211    3.6976 H       1  UNL1        0.2105
     39 H          21.9047   76.7648    4.4191 H       1  UNL1        0.2105
     40 H          18.2491   75.3377    1.5869 H       1  UNL1        0.2106
     41 O          22.2355   72.7542    5.7841 O.3     1  UNL1       -0.3794
     42 C          23.0609   73.0735    4.6791 C.3     1  UNL1        0.1693
     43 H          22.7833   72.4089    6.5069 H       1  UNL1        0.2105
@<TRIPOS>UNITY_ATOM_ATTR
2 1
charge -1
26 1
charge -1
@<TRIPOS>BOND
     1    25    28    1
     2    25    24    1
     3    25    26    1
     4    25    27    2
     5     1     4    1
     6     1    24    1
     7     1     2    1
     8     1     3    2
     9     6    11    1
    10     6    12    1
    11    29    36    1
    12    29    37    1
    13     7     9    1
    14     7    13    1
    15     8    10    1
    16     8    14    1
    17    28    37    1
    18     4     5    1
    19    30    33    1
    20    30    38    1
    21    31    34    1
    22    31    39    1
    23    32    35    1
    24    32    40    1
    25    41    42    1
    26    41    43    1
    27    15    19    2
    28    16    22    2
    29    17    12    1
    30    17    19   ar
    31    17    20   ar
    32    18    19   ar
    33    18    22   ar
    34    18    23    1
    35     9    10    1
    36     9    11    1
    37    10    12    1
    38    11     5    1
    39    33    34    1
    40    33    35    1
    41    34    36    1
    42    35    37    1
    43    36    42    1
    44    20    21   ar
    45    21    22   ar
