@<TRIPOS>MOLECULE
GDU
 43 45 0 0 0
SMALL
GASTEIGER

@<TRIPOS>ATOM
      1 P          20.7204   71.0973   -3.2311 P.3     1  UNL1        0.2189
      2 O          21.1047   71.2483   -4.6520 O.2     1  UNL1       -0.5170
      3 O          20.3475   72.5397   -2.6199 O.3     1  UNL1       -0.4371
      4 O          19.4464   70.1218   -3.1200 O.3     1  UNL1       -0.3112
      5 C          18.3693   70.9051   -2.6034 C.3     1  UNL1        0.1811
      6 C          16.8570   70.5384   -5.8447 C.3     1  UNL1        0.2383
      7 C          16.8291   69.1119   -5.2387 C.3     1  UNL1        0.1895
      8 O          15.7027   68.3752   -5.7202 O.3     1  UNL1       -0.3779
      9 C          16.6906   69.4058   -3.7222 C.3     1  UNL1        0.1713
     10 C          17.1887   70.8555   -3.5749 C.3     1  UNL1        0.1764
     11 O          17.6080   71.3012   -4.8763 O.3     1  UNL1       -0.3308
     12 O          15.3255   69.2948   -3.3145 O.3     1  UNL1       -0.3794
     13 H          15.7441   67.5012   -5.3075 H       1  UNL1        0.2106
     14 H          15.0553   68.3825   -3.4858 H       1  UNL1        0.2105
     15 N          17.5376   70.5374   -7.1406 N.ar    1  UNL1       -0.2551
     16 C          16.8144   70.4994   -8.2737 C.ar    1  UNL1        0.3323
     17 N          17.4154   70.5011   -9.4781 N.ar    1  UNL1       -0.2743
     18 C          18.7590   70.5313   -9.5675 C.ar    1  UNL1        0.2626
     19 C          19.5339   70.5658   -8.3823 C.ar    1  UNL1        0.0795
     20 C          18.9055   70.5675   -7.1875 C.ar    1  UNL1        0.0869
     21 O          15.6015   70.4724   -8.2089 O.2     1  UNL1       -0.2464
     22 O          19.3041   70.5281  -10.6571 O.2     1  UNL1       -0.2670
     23 H          16.8777   70.4777  -10.2856 H       1  UNL1        0.1734
     24 O          21.9525   70.4690   -2.4067 O.3     1  UNL1       -0.2703
     25 P          23.0459   71.6378   -2.2388 P.3     1  UNL1        0.2208
     26 O          24.3939   71.0959   -2.5190 O.2     1  UNL1       -0.5170
     27 O          22.7212   72.8288   -3.2734 O.3     1  UNL1       -0.4371
     28 O          22.9975   72.2075   -0.7344 O.3     1  UNL1       -0.2858
     29 C          23.2353   71.1006    0.1363 C.3     1  UNL1        0.2704
     30 C          22.0247   70.9021    1.0497 C.3     1  UNL1        0.1967
     31 C          21.7925   72.1839    1.8555 C.3     1  UNL1        0.1715
     32 C          23.0960   72.5554    2.5715 C.3     1  UNL1        0.1694
     33 C          24.2257   72.6306    1.5415 C.3     1  UNL1        0.1761
     34 O          20.8698   70.6166    0.2585 O.3     1  UNL1       -0.3775
     35 O          20.7587   71.9655    2.8178 O.3     1  UNL1       -0.3794
     36 O          23.4021   71.5631    3.5521 O.3     1  UNL1       -0.3794
     37 O          24.3973   71.3569    0.9215 O.3     1  UNL1       -0.3258
     38 H          21.0630   69.8083   -0.2357 H       1  UNL1        0.2106
     39 H          19.9643   71.7237    2.3251 H       1  UNL1        0.2105
     40 H          22.6631   71.5469    4.1741 H       1  UNL1        0.2105
     41 C          25.5254   73.0346    2.2411 C.3     1  UNL1        0.1693
     42 O          26.2212   71.8614    2.6661 O.3     1  UNL1       -0.3794
     43 H          27.0325   72.1590    3.1003 H       1  UNL1        0.2105
@<TRIPOS>BOND
     1    15    16   ar
     2    15    20   ar
     3    15     6    1
     4    16    17   ar
     5    16    21    2
     6    17    18   ar
     7    17    23    1
     8    18    19   ar
     9    18    22    2
    10    19    20   ar
    11     6     7    1
    12     6    11    1
    13     7     8    1
    14     7     9    1
    15     8    13    1
    16     9    10    1
    17     9    12    1
    18    10    11    1
    19    10     5    1
    20    12    14    1
    21     5     4    1
    22     4     1    1
    23     1     2    2
    24     1     3    1
    25     1    24    1
    26    24    25    1
    27    25    26    2
    28    25    27    1
    29    25    28    1
    30    28    29    1
    31    29    30    1
    32    29    37    1
    33    30    31    1
    34    30    34    1
    35    31    32    1
    36    31    35    1
    37    32    33    1
    38    32    36    1
    39    33    41    1
    40    33    37    1
    41    41    42    1
    42    34    38    1
    43    35    39    1
    44    36    40    1
    45    42    43    1
@<TRIPOS>MOLECULE
GDU
 43 45 0 0 0
SMALL
GASTEIGER

@<TRIPOS>ATOM
      1 P          20.6676   71.1644   -3.2056 P.3     1  UNL1        0.2189
      2 O          21.1707   70.9552   -4.5813 O.2     1  UNL1       -0.5170
      3 O          20.2836   72.7153   -3.0048 O.3     1  UNL1       -0.4371
      4 O          19.3638   70.2534   -2.9663 O.3     1  UNL1       -0.3112
      5 C          18.3032   71.1372   -2.5993 C.3     1  UNL1        0.1811
      6 C          16.8475   70.5303   -5.8304 C.3     1  UNL1        0.2383
      7 C          16.9015   69.1339   -5.1594 C.3     1  UNL1        0.1895
      8 O          15.8272   68.3078   -5.6140 O.3     1  UNL1       -0.3779
      9 C          16.7306   69.4876   -3.6591 C.3     1  UNL1        0.1713
     10 C          17.1373   70.9705   -3.5754 C.3     1  UNL1        0.1764
     11 O          17.5409   71.3814   -4.8932 O.3     1  UNL1       -0.3308
     12 O          15.3711   69.3112   -3.2559 O.3     1  UNL1       -0.3794
     13 H          15.9181   67.4578   -5.1612 H       1  UNL1        0.2106
     14 H          15.1590   68.3771   -3.3868 H       1  UNL1        0.2105
     15 N          17.5394   70.5122   -7.1202 N.ar    1  UNL1       -0.2551
     16 C          16.8270   70.5594   -8.2598 C.ar    1  UNL1        0.3323
     17 N          17.4388   70.5477   -9.4587 N.ar    1  UNL1       -0.2743
     18 C          18.7817   70.4780   -9.5362 C.ar    1  UNL1        0.2626
     19 C          19.5447   70.4219   -8.3442 C.ar    1  UNL1        0.0795
     20 C          18.9060   70.4394   -7.1550 C.ar    1  UNL1        0.0869
     21 O          15.6150   70.6230   -8.2058 O.2     1  UNL1       -0.2464
     22 O          19.3361   70.4625  -10.6211 O.2     1  UNL1       -0.2670
     23 H          16.9092   70.5868  -10.2710 H       1  UNL1        0.1734
     24 O          21.8113   70.7550   -2.1488 O.3     1  UNL1       -0.2703
     25 P          23.0822   71.6955   -2.4490 P.3     1  UNL1        0.2208
     26 O          24.1610   70.8868   -3.0584 O.2     1  UNL1       -0.5170
     27 O          22.6529   72.8693   -3.4649 O.3     1  UNL1       -0.4371
     28 O          23.6082   72.3439   -1.0732 O.3     1  UNL1       -0.2858
     29 C          22.8342   73.5229   -0.8476 C.3     1  UNL1        0.2704
     30 C          23.7704   74.7108   -0.6202 C.3     1  UNL1        0.1967
     31 C          24.6683   74.4144    0.5850 C.3     1  UNL1        0.1715
     32 C          23.7803   74.0459    1.7788 C.3     1  UNL1        0.1694
     33 C          22.8440   72.9061    1.3697 C.3     1  UNL1        0.1761
     34 O          24.5772   74.9135   -1.7817 O.3     1  UNL1       -0.3775
     35 O          25.4455   75.5714    0.9007 O.3     1  UNL1       -0.3794
     36 O          23.0121   75.1839    2.1722 O.3     1  UNL1       -0.3794
     37 O          22.0056   73.3335    0.2971 O.3     1  UNL1       -0.3258
     38 H          23.9717   75.0892   -2.5148 H       1  UNL1        0.2106
     39 H          25.9773   75.7729    0.1203 H       1  UNL1        0.2105
     40 H          23.6410   75.8759    2.4149 H       1  UNL1        0.2105
     41 C          21.9762   72.5072    2.5654 C.3     1  UNL1        0.1693
     42 O          20.8016   71.8409    2.0991 O.3     1  UNL1       -0.3794
     43 H          20.2838   71.6062    2.8814 H       1  UNL1        0.2105
@<TRIPOS>BOND
     1    15    16   ar
     2    15    20   ar
     3    15     6    1
     4    16    17   ar
     5    16    21    2
     6    17    18   ar
     7    17    23    1
     8    18    19   ar
     9    18    22    2
    10    19    20   ar
    11     6     7    1
    12     6    11    1
    13     7     8    1
    14     7     9    1
    15     8    13    1
    16     9    10    1
    17     9    12    1
    18    10    11    1
    19    10     5    1
    20    12    14    1
    21     5     4    1
    22     4     1    1
    23     1     2    2
    24     1     3    1
    25     1    24    1
    26    24    25    1
    27    25    26    2
    28    25    27    1
    29    25    28    1
    30    28    29    1
    31    29    30    1
    32    29    37    1
    33    30    31    1
    34    30    34    1
    35    31    32    1
    36    31    35    1
    37    32    33    1
    38    32    36    1
    39    33    41    1
    40    33    37    1
    41    41    42    1
    42    34    38    1
    43    35    39    1
    44    36    40    1
    45    42    43    1
@<TRIPOS>MOLECULE
GDU
 43 45 0 0 0
SMALL
GASTEIGER

@<TRIPOS>ATOM
      1 P          20.6969   71.2227   -1.0320 P.3     1  UNL1        0.2189
      2 O          21.6467   70.8280   -2.0957 O.2     1  UNL1       -0.5170
      3 O          20.6087   72.8290   -0.9603 O.3     1  UNL1       -0.4371
      4 O          19.2424   70.6196   -1.3600 O.3     1  UNL1       -0.3112
      5 C          19.3243   70.0228   -2.6552 C.3     1  UNL1        0.1811
      6 C          17.4051   70.3980   -5.6723 C.3     1  UNL1        0.2383
      7 C          17.1146   68.9491   -5.2040 C.3     1  UNL1        0.1895
      8 O          15.7995   68.5427   -5.5894 O.3     1  UNL1       -0.3779
      9 C          17.2243   69.0778   -3.6624 C.3     1  UNL1        0.1713
     10 C          18.0610   70.3534   -3.4519 C.3     1  UNL1        0.1764
     11 O          18.4200   70.8524   -4.7520 O.3     1  UNL1       -0.3308
     12 O          15.9274   69.2202   -3.0794 O.3     1  UNL1       -0.3794
     13 H          15.6827   67.6371   -5.2700 H       1  UNL1        0.2106
     14 H          15.4336   68.4176   -3.2955 H       1  UNL1        0.2105
     15 N          17.9127   70.4067   -7.0453 N.ar    1  UNL1       -0.2551
     16 C          17.0488   70.4374   -8.0754 C.ar    1  UNL1        0.3323
     17 N          17.4895   70.4496   -9.3472 N.ar    1  UNL1       -0.2743
     18 C          18.8103   70.4211   -9.6096 C.ar    1  UNL1        0.2626
     19 C          19.7318   70.3828   -8.5345 C.ar    1  UNL1        0.0795
     20 C          19.2629   70.3756   -7.2686 C.ar    1  UNL1        0.0869
     21 O          15.8545   70.4639   -7.8544 O.2     1  UNL1       -0.2464
     22 O          19.2100   70.4272  -10.7605 O.2     1  UNL1       -0.2670
     23 H          16.8520   70.4762  -10.0784 H       1  UNL1        0.1734
     24 O          21.2096   70.6511    0.3832 O.3     1  UNL1       -0.2703
     25 P          22.7328   71.1399    0.5596 P.3     1  UNL1        0.2208
     26 O          23.5088   70.0925    1.2594 O.2     1  UNL1       -0.5170
     27 O          23.3811   71.4090   -0.8900 O.3     1  UNL1       -0.4371
     28 O          22.7650   72.4989    1.4212 O.3     1  UNL1       -0.2858
     29 C          23.0642   72.1294    2.7679 C.3     1  UNL1        0.2704
     30 C          22.0539   72.7835    3.7118 C.3     1  UNL1        0.1967
     31 C          22.1231   74.3040    3.5400 C.3     1  UNL1        0.1715
     32 C          23.5767   74.7528    3.7279 C.3     1  UNL1        0.1694
     33 C          24.4719   73.9500    2.7806 C.3     1  UNL1        0.1761
     34 O          20.7381   72.3242    3.3973 O.3     1  UNL1       -0.3775
     35 O          21.2930   74.9358    4.5168 O.3     1  UNL1       -0.3794
     36 O          23.9766   74.5236    5.0798 O.3     1  UNL1       -0.3794
     37 O          24.3828   72.5612    3.0956 O.3     1  UNL1       -0.3258
     38 H          20.7430   71.3641    3.5117 H       1  UNL1        0.2106
     39 H          20.3939   74.6163    4.3689 H       1  UNL1        0.2105
     40 H          23.3837   75.0426    5.6388 H       1  UNL1        0.2105
     41 C          25.9218   74.4146    2.9357 C.3     1  UNL1        0.1693
     42 O          26.7325   73.3128    3.3480 O.3     1  UNL1       -0.3794
     43 H          27.6361   73.6468    3.4333 H       1  UNL1        0.2105
@<TRIPOS>BOND
     1    15    16   ar
     2    15    20   ar
     3    15     6    1
     4    16    17   ar
     5    16    21    2
     6    17    18   ar
     7    17    23    1
     8    18    19   ar
     9    18    22    2
    10    19    20   ar
    11     6     7    1
    12     6    11    1
    13     7     8    1
    14     7     9    1
    15     8    13    1
    16     9    10    1
    17     9    12    1
    18    10    11    1
    19    10     5    1
    20    12    14    1
    21     5     4    1
    22     4     1    1
    23     1     2    2
    24     1     3    1
    25     1    24    1
    26    24    25    1
    27    25    26    2
    28    25    27    1
    29    25    28    1
    30    28    29    1
    31    29    30    1
    32    29    37    1
    33    30    31    1
    34    30    34    1
    35    31    32    1
    36    31    35    1
    37    32    33    1
    38    32    36    1
    39    33    41    1
    40    33    37    1
    41    41    42    1
    42    34    38    1
    43    35    39    1
    44    36    40    1
    45    42    43    1
@<TRIPOS>MOLECULE
GDU
 43 45 0 0 0
SMALL
GASTEIGER

@<TRIPOS>ATOM
      1 P          20.9156   71.2685   -2.1330 P.3     1  UNL1        0.2189
      2 O          20.5082   70.5375   -0.9126 O.2     1  UNL1       -0.5170
      3 O          22.1089   70.4708   -2.8630 O.3     1  UNL1       -0.4371
      4 O          19.6605   71.3881   -3.1316 O.3     1  UNL1       -0.3112
      5 C          18.4922   71.0913   -2.3651 C.3     1  UNL1        0.1811
      6 C          16.9178   70.5835   -5.5574 C.3     1  UNL1        0.2383
      7 C          17.0199   69.1637   -4.9437 C.3     1  UNL1        0.1895
      8 O          15.9410   68.3376   -5.3873 O.3     1  UNL1       -0.3779
      9 C          16.9038   69.4570   -3.4252 C.3     1  UNL1        0.1713
     10 C          17.2908   70.9423   -3.3003 C.3     1  UNL1        0.1764
     11 O          17.6351   71.4098   -4.6160 O.3     1  UNL1       -0.3308
     12 O          15.5643   69.2427   -2.9760 O.3     1  UNL1       -0.3794
     13 H          16.0629   67.4726   -4.9717 H       1  UNL1        0.2106
     14 H          15.3615   68.3108   -3.1345 H       1  UNL1        0.2105
     15 N          17.5578   70.6262   -6.8733 N.ar    1  UNL1       -0.2551
     16 C          16.8155   70.4562   -7.9816 C.ar    1  UNL1        0.3323
     17 N          17.3786   70.4944   -9.2036 N.ar    1  UNL1       -0.2743
     18 C          18.7040   70.6949   -9.3356 C.ar    1  UNL1        0.2626
     19 C          19.4993   70.8698   -8.1767 C.ar    1  UNL1        0.0795
     20 C          18.9083   70.8311   -6.9635 C.ar    1  UNL1        0.0869
     21 O          15.6186   70.2749   -7.8784 O.2     1  UNL1       -0.2464
     22 O          19.2154   70.7249  -10.4411 O.2     1  UNL1       -0.2670
     23 H          16.8270   70.3740   -9.9929 H       1  UNL1        0.1734
     24 O          21.4248   72.7418   -1.7300 O.3     1  UNL1       -0.2703
     25 P          22.6932   72.5478   -0.7586 P.3     1  UNL1        0.2208
     26 O          23.1641   71.1474   -0.8365 O.2     1  UNL1       -0.5170
     27 O          23.8773   73.5380   -1.2184 O.3     1  UNL1       -0.4371
     28 O          22.2679   72.8886    0.7557 O.3     1  UNL1       -0.2858
     29 C          23.4686   73.1992    1.4640 C.3     1  UNL1        0.2704
     30 C          23.4898   72.4360    2.7893 C.3     1  UNL1        0.1967
     31 C          22.2592   72.8306    3.6116 C.3     1  UNL1        0.1715
     32 C          22.2240   74.3578    3.7389 C.3     1  UNL1        0.1694
     33 C          22.2968   74.9756    2.3403 C.3     1  UNL1        0.1761
     34 O          23.4654   71.0307    2.5328 O.3     1  UNL1       -0.3775
     35 O          22.3402   72.2400    4.9105 O.3     1  UNL1       -0.3794
     36 O          23.3362   74.7980    4.5194 O.3     1  UNL1       -0.3794
     37 O          23.5224   74.6021    1.7123 O.3     1  UNL1       -0.3258
     38 H          24.2521   70.8292    2.0081 H       1  UNL1        0.2106
     39 H          22.3720   71.2836    4.7816 H       1  UNL1        0.2105
     40 H          23.2521   74.3808    5.3867 H       1  UNL1        0.2105
     41 C          22.2278   76.5002    2.4538 C.3     1  UNL1        0.1693
     42 O          21.5274   76.8569    3.6468 O.3     1  UNL1       -0.3794
     43 H          21.5068   77.8232    3.6809 H       1  UNL1        0.2105
@<TRIPOS>BOND
     1    15    16   ar
     2    15    20   ar
     3    15     6    1
     4    16    17   ar
     5    16    21    2
     6    17    18   ar
     7    17    23    1
     8    18    19   ar
     9    18    22    2
    10    19    20   ar
    11     6     7    1
    12     6    11    1
    13     7     8    1
    14     7     9    1
    15     8    13    1
    16     9    10    1
    17     9    12    1
    18    10    11    1
    19    10     5    1
    20    12    14    1
    21     5     4    1
    22     4     1    1
    23     1     2    2
    24     1     3    1
    25     1    24    1
    26    24    25    1
    27    25    26    2
    28    25    27    1
    29    25    28    1
    30    28    29    1
    31    29    30    1
    32    29    37    1
    33    30    31    1
    34    30    34    1
    35    31    32    1
    36    31    35    1
    37    32    33    1
    38    32    36    1
    39    33    41    1
    40    33    37    1
    41    41    42    1
    42    34    38    1
    43    35    39    1
    44    36    40    1
    45    42    43    1
@<TRIPOS>MOLECULE
GDU
 43 45 0 0 0
SMALL
GASTEIGER

@<TRIPOS>ATOM
      1 P          20.9181   71.9998   -1.9215 P.3     1  UNL1        0.2189
      2 O          20.2562   72.4416   -0.6740 O.2     1  UNL1       -0.5170
      3 O          21.7296   70.6368   -1.6447 O.3     1  UNL1       -0.4371
      4 O          19.8078   71.7423   -3.0563 O.3     1  UNL1       -0.3112
      5 C          18.8171   70.8897   -2.4800 C.3     1  UNL1        0.1811
      6 C          17.1001   70.5883   -5.6246 C.3     1  UNL1        0.2383
      7 C          17.0939   69.1531   -5.0387 C.3     1  UNL1        0.1895
      8 O          15.9311   68.4358   -5.4590 O.3     1  UNL1       -0.3779
      9 C          17.0543   69.4254   -3.5124 C.3     1  UNL1        0.1713
     10 C          17.5773   70.8674   -3.3759 C.3     1  UNL1        0.1764
     11 O          17.9192   71.3283   -4.6945 O.3     1  UNL1       -0.3308
     12 O          15.7163   69.3228   -3.0213 O.3     1  UNL1       -0.3794
     13 H          15.9882   67.5553   -5.0624 H       1  UNL1        0.2106
     14 H          15.4254   68.4161   -3.1884 H       1  UNL1        0.2105
     15 N          17.6980   70.5997   -6.9607 N.ar    1  UNL1       -0.2551
     16 C          16.9134   70.4585   -8.0436 C.ar    1  UNL1        0.3323
     17 N          17.4375   70.4691   -9.2834 N.ar    1  UNL1       -0.2743
     18 C          18.7652   70.6122   -9.4592 C.ar    1  UNL1        0.2626
     19 C          19.6047   70.7561   -8.3275 C.ar    1  UNL1        0.0795
     20 C          19.0525   70.7463   -7.0956 C.ar    1  UNL1        0.0869
     21 O          15.7139   70.3290   -7.9009 O.2     1  UNL1       -0.2464
     22 O          19.2411   70.6170  -10.5808 O.2     1  UNL1       -0.2670
     23 H          16.8558   70.3702  -10.0539 H       1  UNL1        0.1734
     24 O          21.9406   73.1401   -2.4182 O.3     1  UNL1       -0.2703
     25 P          22.6184   72.6004   -3.7743 P.3     1  UNL1        0.2208
     26 O          23.9788   72.0986   -3.4798 O.2     1  UNL1       -0.5170
     27 O          21.7258   71.4050   -4.3814 O.3     1  UNL1       -0.4371
     28 O          22.7076   73.7988   -4.8448 O.3     1  UNL1       -0.2858
     29 C          21.6400   73.6058   -5.7737 C.3     1  UNL1        0.2704
     30 C          22.2064   73.5342   -7.1926 C.3     1  UNL1        0.1967
     31 C          22.9584   74.8339   -7.4955 C.3     1  UNL1        0.1715
     32 C          22.0211   76.0165   -7.2261 C.3     1  UNL1        0.1694
     33 C          21.4700   75.9007   -5.8028 C.3     1  UNL1        0.1761
     34 O          23.1023   72.4261   -7.2950 O.3     1  UNL1       -0.3775
     35 O          23.3670   74.8442   -8.8649 O.3     1  UNL1       -0.3794
     36 O          20.9440   75.9958   -8.1639 O.3     1  UNL1       -0.3794
     37 O          20.7225   74.6923   -5.6729 O.3     1  UNL1       -0.3258
     38 H          22.5892   71.6326   -7.0899 H       1  UNL1        0.2106
     39 H          23.9429   74.0795   -8.9909 H       1  UNL1        0.2105
     40 H          21.3374   76.0650   -9.0435 H       1  UNL1        0.2105
     41 C          20.5594   77.0957   -5.5115 C.3     1  UNL1        0.1693
     42 O          19.6518   77.2782   -6.5997 O.3     1  UNL1       -0.3794
     43 H          19.0969   78.0383   -6.3768 H       1  UNL1        0.2105
@<TRIPOS>BOND
     1    15    16   ar
     2    15    20   ar
     3    15     6    1
     4    16    17   ar
     5    16    21    2
     6    17    18   ar
     7    17    23    1
     8    18    19   ar
     9    18    22    2
    10    19    20   ar
    11     6     7    1
    12     6    11    1
    13     7     8    1
    14     7     9    1
    15     8    13    1
    16     9    10    1
    17     9    12    1
    18    10    11    1
    19    10     5    1
    20    12    14    1
    21     5     4    1
    22     4     1    1
    23     1     2    2
    24     1     3    1
    25     1    24    1
    26    24    25    1
    27    25    26    2
    28    25    27    1
    29    25    28    1
    30    28    29    1
    31    29    30    1
    32    29    37    1
    33    30    31    1
    34    30    34    1
    35    31    32    1
    36    31    35    1
    37    32    33    1
    38    32    36    1
    39    33    41    1
    40    33    37    1
    41    41    42    1
    42    34    38    1
    43    35    39    1
    44    36    40    1
    45    42    43    1
@<TRIPOS>MOLECULE
GDU
 43 45 0 0 0
SMALL
GASTEIGER

@<TRIPOS>ATOM
      1 P          20.8449   71.0980   -2.5974 P.3     1  UNL1        0.2189
      2 O          22.0915   70.5347   -3.1616 O.2     1  UNL1       -0.5170
      3 O          20.6698   72.6192   -3.0958 O.3     1  UNL1       -0.4371
      4 O          19.5887   70.2236   -3.0915 O.3     1  UNL1       -0.3112
      5 C          18.4330   70.7559   -2.4422 C.3     1  UNL1        0.1811
      6 C          16.9258   70.5308   -5.6988 C.3     1  UNL1        0.2383
      7 C          16.8682   69.0850   -5.1426 C.3     1  UNL1        0.1895
      8 O          15.7296   68.3875   -5.6527 O.3     1  UNL1       -0.3779
      9 C          16.7298   69.3290   -3.6173 C.3     1  UNL1        0.1713
     10 C          17.2552   70.7629   -3.4184 C.3     1  UNL1        0.1764
     11 O          17.6878   71.2450   -4.7024 O.3     1  UNL1       -0.3308
     12 O          15.3613   69.2306   -3.2178 O.3     1  UNL1       -0.3794
     13 H          15.7526   67.4991   -5.2704 H       1  UNL1        0.2106
     14 H          15.0742   68.3301   -3.4214 H       1  UNL1        0.2105
     15 N          17.6111   70.5614   -6.9919 N.ar    1  UNL1       -0.2551
     16 C          16.8937   70.5115   -8.1282 C.ar    1  UNL1        0.3323
     17 N          17.4990   70.5417   -9.3301 N.ar    1  UNL1       -0.2743
     18 C          18.8414   70.6127   -9.4138 C.ar    1  UNL1        0.2626
     19 C          19.6104   70.6601   -8.2252 C.ar    1  UNL1        0.0795
     20 C          18.9776   70.6327   -7.0330 C.ar    1  UNL1        0.0869
     21 O          15.6819   70.4478   -8.0686 O.2     1  UNL1       -0.2464
     22 O          19.3905   70.6352  -10.5012 O.2     1  UNL1       -0.2670
     23 H          16.9653   70.5092  -10.1399 H       1  UNL1        0.1734
     24 O          20.9227   71.0671   -0.9895 O.3     1  UNL1       -0.2703
     25 P          22.2843   71.8176   -0.5738 P.3     1  UNL1        0.2208
     26 O          23.2676   70.8232   -0.0907 O.2     1  UNL1       -0.5170
     27 O          22.8853   72.5872   -1.8547 O.3     1  UNL1       -0.4371
     28 O          21.9770   72.8812    0.5943 O.3     1  UNL1       -0.2858
     29 C          20.8374   72.3977    1.3065 C.3     1  UNL1        0.2704
     30 C          19.8336   73.5363    1.4943 C.3     1  UNL1        0.1967
     31 C          20.5096   74.6749    2.2643 C.3     1  UNL1        0.1715
     32 C          21.1015   74.1070    3.5592 C.3     1  UNL1        0.1694
     33 C          22.0114   72.9255    3.2143 C.3     1  UNL1        0.1761
     34 O          19.4027   74.0099    0.2171 O.3     1  UNL1       -0.3775
     35 O          19.5452   75.6826    2.5759 O.3     1  UNL1       -0.3794
     36 O          20.0456   73.6691    4.4155 O.3     1  UNL1       -0.3794
     37 O          21.2493   71.9008    2.5778 O.3     1  UNL1       -0.3258
     38 H          18.9909   73.2603   -0.2340 H       1  UNL1        0.2106
     39 H          19.1921   76.0014    1.7357 H       1  UNL1        0.2105
     40 H          19.4968   74.4422    4.6010 H       1  UNL1        0.2105
     41 C          22.6349   72.3724    4.4978 C.3     1  UNL1        0.1693
     42 O          22.5257   73.3462    5.5374 O.3     1  UNL1       -0.3794
     43 H          22.9286   72.9592    6.3268 H       1  UNL1        0.2105
@<TRIPOS>BOND
     1    15    16   ar
     2    15    20   ar
     3    15     6    1
     4    16    17   ar
     5    16    21    2
     6    17    18   ar
     7    17    23    1
     8    18    19   ar
     9    18    22    2
    10    19    20   ar
    11     6     7    1
    12     6    11    1
    13     7     8    1
    14     7     9    1
    15     8    13    1
    16     9    10    1
    17     9    12    1
    18    10    11    1
    19    10     5    1
    20    12    14    1
    21     5     4    1
    22     4     1    1
    23     1     2    2
    24     1     3    1
    25     1    24    1
    26    24    25    1
    27    25    26    2
    28    25    27    1
    29    25    28    1
    30    28    29    1
    31    29    30    1
    32    29    37    1
    33    30    31    1
    34    30    34    1
    35    31    32    1
    36    31    35    1
    37    32    33    1
    38    32    36    1
    39    33    41    1
    40    33    37    1
    41    41    42    1
    42    34    38    1
    43    35    39    1
    44    36    40    1
    45    42    43    1
@<TRIPOS>MOLECULE
GDU
 43 45 0 0 0
SMALL
GASTEIGER

@<TRIPOS>ATOM
      1 P          22.8890   72.5504   -3.5307 P.3     1  UNL1        0.2189
      2 O          24.1961   72.2701   -4.1652 O.2     1  UNL1       -0.5170
      3 O          23.0324   73.8130   -2.5417 O.3     1  UNL1       -0.4371
      4 O          21.7999   72.8799   -4.6674 O.3     1  UNL1       -0.3112
      5 C          22.3497   72.4352   -5.9085 C.3     1  UNL1        0.1811
      6 C          19.2282   70.6774   -6.2155 C.3     1  UNL1        0.2383
      7 C          19.0209   71.9829   -7.0252 C.3     1  UNL1        0.1895
      8 O          18.1143   71.7716   -8.1099 O.3     1  UNL1       -0.3779
      9 C          20.4520   72.2714   -7.5486 C.3     1  UNL1        0.1713
     10 C          21.3662   71.4835   -6.5921 C.3     1  UNL1        0.1764
     11 O          20.5240   70.8609   -5.6065 O.3     1  UNL1       -0.3308
     12 O          20.5973   71.8019   -8.8904 O.3     1  UNL1       -0.3794
     13 H          18.0289   72.6179   -8.5708 H       1  UNL1        0.2106
     14 H          19.9594   72.2900   -9.4285 H       1  UNL1        0.2105
     15 N          18.1926   70.5332   -5.1911 N.ar    1  UNL1       -0.2551
     16 C          17.0745   69.8387   -5.4662 C.ar    1  UNL1        0.3323
     17 N          16.1086   69.6882   -4.5409 N.ar    1  UNL1       -0.2743
     18 C          16.2434   70.2427   -3.3208 C.ar    1  UNL1        0.2626
     19 C          17.4133   70.9819   -3.0187 C.ar    1  UNL1        0.0795
     20 C          18.3683   71.1137   -3.9637 C.ar    1  UNL1        0.0869
     21 O          16.9389   69.3324   -6.5623 O.2     1  UNL1       -0.2464
     22 O          15.3675   70.1110   -2.4842 O.2     1  UNL1       -0.2670
     23 H          15.3101   69.1801   -4.7553 H       1  UNL1        0.1734
     24 O          22.4151   71.2623   -2.6889 O.3     1  UNL1       -0.2703
     25 P          21.8914   71.8016   -1.2659 P.3     1  UNL1        0.2208
     26 O          20.8597   72.8399   -1.4815 O.2     1  UNL1       -0.5170
     27 O          21.2562   70.5801   -0.4300 O.3     1  UNL1       -0.4371
     28 O          23.1231   72.4303   -0.4428 O.3     1  UNL1       -0.2858
     29 C          22.6180   72.8023    0.8403 C.3     1  UNL1        0.2704
     30 C          22.8708   74.2924    1.0746 C.3     1  UNL1        0.1967
     31 C          24.3760   74.5626    0.9868 C.3     1  UNL1        0.1715
     32 C          25.1005   73.6183    1.9528 C.3     1  UNL1        0.1694
     33 C          24.6797   72.1780    1.6503 C.3     1  UNL1        0.1761
     34 O          22.1871   75.0562    0.0794 O.3     1  UNL1       -0.3775
     35 O          24.6421   75.9195    1.3481 O.3     1  UNL1       -0.3794
     36 O          24.7519   73.9506    3.2974 O.3     1  UNL1       -0.3794
     37 O          23.2738   72.0358    1.8477 O.3     1  UNL1       -0.3258
     38 H          21.2465   74.8498    0.1667 H       1  UNL1        0.2106
     39 H          24.1588   76.4753    0.7237 H       1  UNL1        0.2105
     40 H          25.0294   74.8648    3.4407 H       1  UNL1        0.2105
     41 C          25.4238   71.2236    2.5870 C.3     1  UNL1        0.1693
     42 O          24.9771   69.8864    2.3562 O.3     1  UNL1       -0.3794
     43 H          25.4696   69.3180    2.9642 H       1  UNL1        0.2105
@<TRIPOS>BOND
     1    15    16   ar
     2    15    20   ar
     3    15     6    1
     4    16    17   ar
     5    16    21    2
     6    17    18   ar
     7    17    23    1
     8    18    19   ar
     9    18    22    2
    10    19    20   ar
    11     6     7    1
    12     6    11    1
    13     7     8    1
    14     7     9    1
    15     8    13    1
    16     9    10    1
    17     9    12    1
    18    10    11    1
    19    10     5    1
    20    12    14    1
    21     5     4    1
    22     4     1    1
    23     1     2    2
    24     1     3    1
    25     1    24    1
    26    24    25    1
    27    25    26    2
    28    25    27    1
    29    25    28    1
    30    28    29    1
    31    29    30    1
    32    29    37    1
    33    30    31    1
    34    30    34    1
    35    31    32    1
    36    31    35    1
    37    32    33    1
    38    32    36    1
    39    33    41    1
    40    33    37    1
    41    41    42    1
    42    34    38    1
    43    35    39    1
    44    36    40    1
    45    42    43    1
@<TRIPOS>MOLECULE
GDU
 43 45 0 0 0
SMALL
GASTEIGER

@<TRIPOS>ATOM
      1 P          23.4941   72.1288   -3.3189 P.3     1  UNL1        0.2189
      2 O          24.2694   72.9503   -4.2747 O.2     1  UNL1       -0.5170
      3 O          24.2992   70.7705   -3.0027 O.3     1  UNL1       -0.4371
      4 O          23.2763   72.9533   -1.9553 O.3     1  UNL1       -0.3112
      5 C          21.9062   72.7884   -1.5863 C.3     1  UNL1        0.1811
      6 C          23.2025   72.0389    1.6825 C.3     1  UNL1        0.2383
      7 C          22.4978   73.4096    1.8483 C.3     1  UNL1        0.1895
      8 O          21.9755   73.5577    3.1706 O.3     1  UNL1       -0.3779
      9 C          21.3513   73.3133    0.8083 C.3     1  UNL1        0.1713
     10 C          21.8229   72.2201   -0.1685 C.3     1  UNL1        0.1764
     11 O          23.1257   71.7901    0.2627 O.3     1  UNL1       -0.3308
     12 O          20.1301   72.9318    1.4448 O.3     1  UNL1       -0.3794
     13 H          21.5522   74.4269    3.2075 H       1  UNL1        0.2106
     14 H          19.9193   73.6253    2.0847 H       1  UNL1        0.2105
     15 N          24.5980   72.1181    2.1175 N.ar    1  UNL1       -0.2551
     16 C          25.3274   70.9936    2.2263 C.ar    1  UNL1        0.3323
     17 N          26.6136   71.0391    2.6207 N.ar    1  UNL1       -0.2743
     18 C          27.1906   72.2178    2.9238 C.ar    1  UNL1        0.2626
     19 C          26.4328   73.4099    2.8192 C.ar    1  UNL1        0.0795
     20 C          25.1462   73.3362    2.4172 C.ar    1  UNL1        0.0869
     21 O          24.8207   69.9230    1.9559 O.2     1  UNL1       -0.2464
     22 O          28.3533   72.2595    3.2854 O.2     1  UNL1       -0.2670
     23 H          27.1263   70.2181    2.6896 H       1  UNL1        0.1734
     24 O          22.0635   71.7656   -3.9623 O.3     1  UNL1       -0.2703
     25 P          21.8865   72.6972   -5.2626 P.3     1  UNL1        0.2208
     26 O          22.0374   74.1173   -4.8759 O.2     1  UNL1       -0.5170
     27 O          23.0096   72.3160   -6.3524 O.3     1  UNL1       -0.4371
     28 O          20.4254   72.4647   -5.8958 O.3     1  UNL1       -0.2858
     29 C          20.3879   71.1180   -6.3696 C.3     1  UNL1        0.2704
     30 C          19.8817   71.0999   -7.8128 C.3     1  UNL1        0.1967
     31 C          18.4857   71.7286   -7.8594 C.3     1  UNL1        0.1715
     32 C          17.5899   71.0089   -6.8449 C.3     1  UNL1        0.1694
     33 C          18.2696   71.0358   -5.4737 C.3     1  UNL1        0.1761
     34 O          20.7730   71.8476   -8.6421 O.3     1  UNL1       -0.3775
     35 O          17.9388   71.5866   -9.1721 O.3     1  UNL1       -0.3794
     36 O          17.3907   69.6564   -7.2584 O.3     1  UNL1       -0.3794
     37 O          19.5184   70.3488   -5.5419 O.3     1  UNL1       -0.3258
     38 H          21.6385   71.4215   -8.5766 H       1  UNL1        0.2106
     39 H          18.5386   72.0424   -9.7761 H       1  UNL1        0.2105
     40 H          16.9670   69.6885   -8.1260 H       1  UNL1        0.2105
     41 C          17.3674   70.3494   -4.4456 C.3     1  UNL1        0.1693
     42 O          16.0212   70.3426   -4.9238 O.3     1  UNL1       -0.3794
     43 H          15.4867   69.9019   -4.2490 H       1  UNL1        0.2105
@<TRIPOS>BOND
     1    15    16   ar
     2    15    20   ar
     3    15     6    1
     4    16    17   ar
     5    16    21    2
     6    17    18   ar
     7    17    23    1
     8    18    19   ar
     9    18    22    2
    10    19    20   ar
    11     6     7    1
    12     6    11    1
    13     7     8    1
    14     7     9    1
    15     8    13    1
    16     9    10    1
    17     9    12    1
    18    10    11    1
    19    10     5    1
    20    12    14    1
    21     5     4    1
    22     4     1    1
    23     1     2    2
    24     1     3    1
    25     1    24    1
    26    24    25    1
    27    25    26    2
    28    25    27    1
    29    25    28    1
    30    28    29    1
    31    29    30    1
    32    29    37    1
    33    30    31    1
    34    30    34    1
    35    31    32    1
    36    31    35    1
    37    32    33    1
    38    32    36    1
    39    33    41    1
    40    33    37    1
    41    41    42    1
    42    34    38    1
    43    35    39    1
    44    36    40    1
    45    42    43    1
@<TRIPOS>MOLECULE
GDU
 43 45 0 0 0
SMALL
GASTEIGER

@<TRIPOS>ATOM
      1 P          23.0769   72.7516   -3.2967 P.3     1  UNL1        0.2189
      2 O          24.3261   72.4543   -4.0320 O.2     1  UNL1       -0.5170
      3 O          23.1955   74.1989   -2.6006 O.3     1  UNL1       -0.4371
      4 O          21.8370   72.7488   -4.3211 O.3     1  UNL1       -0.3112
      5 C          22.3762   72.5124   -5.6226 C.3     1  UNL1        0.1811
      6 C          19.3362   70.6647   -6.1443 C.3     1  UNL1        0.2383
      7 C          19.1097   72.0051   -6.8894 C.3     1  UNL1        0.1895
      8 O          18.2518   71.8224   -8.0181 O.3     1  UNL1       -0.3779
      9 C          20.5471   72.3728   -7.3409 C.3     1  UNL1        0.1713
     10 C          21.4547   71.5658   -6.3941 C.3     1  UNL1        0.1764
     11 O          20.6011   70.8599   -5.4769 O.3     1  UNL1       -0.3308
     12 O          20.7587   71.9841   -8.6996 O.3     1  UNL1       -0.3794
     13 H          18.1516   72.6894   -8.4354 H       1  UNL1        0.2106
     14 H          20.1230   72.4784   -9.2346 H       1  UNL1        0.2105
     15 N          18.2701   70.4272   -5.1698 N.ar    1  UNL1       -0.2551
     16 C          17.1567   69.7733   -5.5455 C.ar    1  UNL1        0.3323
     17 N          16.1631   69.5388   -4.6682 N.ar    1  UNL1       -0.2743
     18 C          16.2650   69.9668   -3.3952 C.ar    1  UNL1        0.2626
     19 C          17.4295   70.6620   -2.9867 C.ar    1  UNL1        0.0795
     20 C          18.4127   70.8800   -3.8858 C.ar    1  UNL1        0.0869
     21 O          17.0507   69.3808   -6.6904 O.2     1  UNL1       -0.2464
     22 O          15.3641   69.7593   -2.6016 O.2     1  UNL1       -0.2670
     23 H          15.3685   69.0616   -4.9556 H       1  UNL1        0.1734
     24 O          22.8420   71.6309   -2.1647 O.3     1  UNL1       -0.2703
     25 P          21.5017   72.0405   -1.3736 P.3     1  UNL1        0.2208
     26 O          20.6521   72.8815   -2.2454 O.2     1  UNL1       -0.5170
     27 O          20.6944   70.7093   -0.9610 O.3     1  UNL1       -0.4371
     28 O          21.8909   72.8635   -0.0465 O.3     1  UNL1       -0.2858
     29 C          23.0836   72.2739    0.4727 C.3     1  UNL1        0.2704
     30 C          22.7878   71.6401    1.8329 C.3     1  UNL1        0.1967
     31 C          22.2610   72.7206    2.7824 C.3     1  UNL1        0.1715
     32 C          23.2618   73.8814    2.8074 C.3     1  UNL1        0.1694
     33 C          23.5202   74.3467    1.3722 C.3     1  UNL1        0.1761
     34 O          21.8047   70.6148    1.6797 O.3     1  UNL1       -0.3775
     35 O          22.1194   72.1773    4.0967 O.3     1  UNL1       -0.3794
     36 O          24.4854   73.4446    3.4008 O.3     1  UNL1       -0.3794
     37 O          24.0855   73.2782    0.6141 O.3     1  UNL1       -0.3258
     38 H          22.1752   69.9620    1.0702 H       1  UNL1        0.2106
     39 H          21.4927   71.4457    4.0310 H       1  UNL1        0.2105
     40 H          24.2740   73.1564    4.2983 H       1  UNL1        0.2105
     41 C          24.4924   75.5285    1.3883 C.3     1  UNL1        0.1693
     42 O          25.8122   75.0548    1.6619 O.3     1  UNL1       -0.3794
     43 H          26.3927   75.8283    1.6625 H       1  UNL1        0.2105
@<TRIPOS>BOND
     1    15    16   ar
     2    15    20   ar
     3    15     6    1
     4    16    17   ar
     5    16    21    2
     6    17    18   ar
     7    17    23    1
     8    18    19   ar
     9    18    22    2
    10    19    20   ar
    11     6     7    1
    12     6    11    1
    13     7     8    1
    14     7     9    1
    15     8    13    1
    16     9    10    1
    17     9    12    1
    18    10    11    1
    19    10     5    1
    20    12    14    1
    21     5     4    1
    22     4     1    1
    23     1     2    2
    24     1     3    1
    25     1    24    1
    26    24    25    1
    27    25    26    2
    28    25    27    1
    29    25    28    1
    30    28    29    1
    31    29    30    1
    32    29    37    1
    33    30    31    1
    34    30    34    1
    35    31    32    1
    36    31    35    1
    37    32    33    1
    38    32    36    1
    39    33    41    1
    40    33    37    1
    41    41    42    1
    42    34    38    1
    43    35    39    1
    44    36    40    1
    45    42    43    1
@<TRIPOS>MOLECULE
GDU
 43 45 0 0 0
SMALL
GASTEIGER

@<TRIPOS>ATOM
      1 P          20.7558   71.3831   -1.0479 P.3     1  UNL1        0.2189
      2 O          21.1929   72.7867   -0.8794 O.2     1  UNL1       -0.5170
      3 O          20.8567   70.6164    0.3646 O.3     1  UNL1       -0.4371
      4 O          19.2339   71.3532   -1.5672 O.3     1  UNL1       -0.3112
      5 C          19.1598   70.3420   -2.5735 C.3     1  UNL1        0.1811
      6 C          17.2981   70.4568   -5.6472 C.3     1  UNL1        0.2383
      7 C          17.1039   69.0089   -5.1285 C.3     1  UNL1        0.1895
      8 O          15.8332   68.4903   -5.5281 O.3     1  UNL1       -0.3779
      9 C          17.1631   69.2040   -3.5911 C.3     1  UNL1        0.1713
     10 C          17.8968   70.5460   -3.4121 C.3     1  UNL1        0.1764
     11 O          18.2519   71.0209   -4.7223 O.3     1  UNL1       -0.3308
     12 O          15.8443   69.2704   -3.0448 O.3     1  UNL1       -0.3794
     13 H          15.7756   67.5913   -5.1756 H       1  UNL1        0.2106
     14 H          15.4173   68.4253   -3.2402 H       1  UNL1        0.2105
     15 N          17.8396   70.4514   -7.0072 N.ar    1  UNL1       -0.2551
     16 C          17.0021   70.4053   -8.0583 C.ar    1  UNL1        0.3323
     17 N          17.4740   70.4029   -9.3189 N.ar    1  UNL1       -0.2743
     18 C          18.8008   70.4369   -9.5484 C.ar    1  UNL1        0.2626
     19 C          19.6951   70.4800   -8.4508 C.ar    1  UNL1        0.0795
     20 C          19.1950   70.4857   -7.1969 C.ar    1  UNL1        0.0869
     21 O          15.8027   70.3747   -7.8670 O.2     1  UNL1       -0.2464
     22 O          19.2291   70.4300  -10.6890 O.2     1  UNL1       -0.2670
     23 H          16.8550   70.3736  -10.0657 H       1  UNL1        0.1734
     24 O          21.7055   70.6517   -2.1229 O.3     1  UNL1       -0.2703
     25 P          23.0625   71.5125   -2.2086 P.3     1  UNL1        0.2208
     26 O          23.5348   71.8259   -0.8420 O.2     1  UNL1       -0.5170
     27 O          24.1895   70.6617   -2.9834 O.3     1  UNL1       -0.4371
     28 O          22.7816   72.8811   -3.0074 O.3     1  UNL1       -0.2858
     29 C          24.0141   73.2658   -3.6179 C.3     1  UNL1        0.2704
     30 C          24.3269   74.7199   -3.2612 C.3     1  UNL1        0.1967
     31 C          23.1804   75.6107   -3.7494 C.3     1  UNL1        0.1715
     32 C          22.9500   75.3399   -5.2404 C.3     1  UNL1        0.1694
     33 C          22.7395   73.8378   -5.4467 C.3     1  UNL1        0.1761
     34 O          24.4637   74.8465   -1.8447 O.3     1  UNL1       -0.3775
     35 O          23.5239   76.9844   -3.5559 O.3     1  UNL1       -0.3794
     36 O          24.0878   75.7747   -5.9864 O.3     1  UNL1       -0.3794
     37 O          23.9053   73.1270   -5.0326 O.3     1  UNL1       -0.3258
     38 H          25.1898   74.2647   -1.5815 H       1  UNL1        0.2106
     39 H          23.6709   77.1055   -2.6093 H       1  UNL1        0.2105
     40 H          24.1849   76.7217   -5.8221 H       1  UNL1        0.2105
     41 C          22.4744   73.5605   -6.9282 C.3     1  UNL1        0.1693
     42 O          22.4130   72.1496   -7.1443 O.3     1  UNL1       -0.3794
     43 H          22.2442   72.0180   -8.0874 H       1  UNL1        0.2105
@<TRIPOS>BOND
     1    15    16   ar
     2    15    20   ar
     3    15     6    1
     4    16    17   ar
     5    16    21    2
     6    17    18   ar
     7    17    23    1
     8    18    19   ar
     9    18    22    2
    10    19    20   ar
    11     6     7    1
    12     6    11    1
    13     7     8    1
    14     7     9    1
    15     8    13    1
    16     9    10    1
    17     9    12    1
    18    10    11    1
    19    10     5    1
    20    12    14    1
    21     5     4    1
    22     4     1    1
    23     1     2    2
    24     1     3    1
    25     1    24    1
    26    24    25    1
    27    25    26    2
    28    25    27    1
    29    25    28    1
    30    28    29    1
    31    29    30    1
    32    29    37    1
    33    30    31    1
    34    30    34    1
    35    31    32    1
    36    31    35    1
    37    32    33    1
    38    32    36    1
    39    33    41    1
    40    33    37    1
    41    41    42    1
    42    34    38    1
    43    35    39    1
    44    36    40    1
    45    42    43    1
@<TRIPOS>MOLECULE
GDU
 43 45 0 0 0
SMALL
GASTEIGER

@<TRIPOS>ATOM
      1 P          22.8914   72.1502   -2.8430 P.3     1  UNL1        0.2189
      2 O          21.9448   71.2496   -2.1485 O.2     1  UNL1       -0.5170
      3 O          24.1154   71.2881   -3.4361 O.3     1  UNL1       -0.4371
      4 O          22.1329   72.9027   -4.0453 O.3     1  UNL1       -0.3112
      5 C          22.8122   72.5464   -5.2504 C.3     1  UNL1        0.1811
      6 C          19.6817   71.7886   -6.8483 C.3     1  UNL1        0.2383
      7 C          19.4801   73.2039   -6.2489 C.3     1  UNL1        0.1895
      8 O          18.5714   73.9694   -7.0436 O.3     1  UNL1       -0.3779
      9 C          20.9121   73.7948   -6.3223 C.3     1  UNL1        0.1713
     10 C          21.8233   72.5570   -6.4175 C.3     1  UNL1        0.1764
     11 O          20.9790   71.3946   -6.3528 O.3     1  UNL1       -0.3308
     12 O          21.0538   74.6189   -7.4810 O.3     1  UNL1       -0.3794
     13 H          18.4898   74.8345   -6.6184 H       1  UNL1        0.2106
     14 H          20.4178   75.3414   -7.3903 H       1  UNL1        0.2105
     15 N          18.6464   70.8711   -6.3696 N.ar    1  UNL1       -0.2551
     16 C          18.6811   70.4306   -5.0996 C.ar    1  UNL1        0.3323
     17 N          17.7393   69.5893   -4.6335 N.ar    1  UNL1       -0.2743
     18 C          16.7471   69.1654   -5.4397 C.ar    1  UNL1        0.2626
     19 C          16.7011   69.6165   -6.7816 C.ar    1  UNL1        0.0795
     20 C          17.6558   70.4633   -7.2220 C.ar    1  UNL1        0.0869
     21 O          19.5697   70.8047   -4.3603 O.2     1  UNL1       -0.2464
     22 O          15.8969   68.4001   -5.0201 O.2     1  UNL1       -0.2670
     23 H          17.7774   69.2849   -3.7128 H       1  UNL1        0.1734
     24 O          23.4587   73.2381   -1.8004 O.3     1  UNL1       -0.2703
     25 P          22.2161   74.1673   -1.3733 P.3     1  UNL1        0.2208
     26 O          22.3822   75.5143   -1.9625 O.2     1  UNL1       -0.5170
     27 O          20.8465   73.5121   -1.9111 O.3     1  UNL1       -0.4371
     28 O          22.1593   74.2855    0.2307 O.3     1  UNL1       -0.2858
     29 C          22.8149   73.1302    0.7554 C.3     1  UNL1        0.2704
     30 C          21.7889   72.2344    1.4512 C.3     1  UNL1        0.1967
     31 C          21.1128   73.0288    2.5729 C.3     1  UNL1        0.1715
     32 C          22.1989   73.6080    3.4864 C.3     1  UNL1        0.1694
     33 C          23.1935   74.4019    2.6358 C.3     1  UNL1        0.1761
     34 O          20.8065   71.8079    0.5055 O.3     1  UNL1       -0.3775
     35 O          20.2592   72.1647    3.3260 O.3     1  UNL1       -0.3794
     36 O          22.8776   72.5443    4.1557 O.3     1  UNL1       -0.3794
     37 O          23.8147   73.5355    1.6874 O.3     1  UNL1       -0.3258
     38 H          21.2765   71.3197   -0.1841 H       1  UNL1        0.2106
     39 H          19.6018   71.8154    2.7112 H       1  UNL1        0.2105
     40 H          22.2135   72.0700    4.6727 H       1  UNL1        0.2105
     41 C          24.2636   75.0134    3.5430 C.3     1  UNL1        0.1693
     42 O          23.7197   75.2193    4.8478 O.3     1  UNL1       -0.3794
     43 H          24.4242   75.6042    5.3872 H       1  UNL1        0.2105
@<TRIPOS>BOND
     1    15    16   ar
     2    15    20   ar
     3    15     6    1
     4    16    17   ar
     5    16    21    2
     6    17    18   ar
     7    17    23    1
     8    18    19   ar
     9    18    22    2
    10    19    20   ar
    11     6     7    1
    12     6    11    1
    13     7     8    1
    14     7     9    1
    15     8    13    1
    16     9    10    1
    17     9    12    1
    18    10    11    1
    19    10     5    1
    20    12    14    1
    21     5     4    1
    22     4     1    1
    23     1     2    2
    24     1     3    1
    25     1    24    1
    26    24    25    1
    27    25    26    2
    28    25    27    1
    29    25    28    1
    30    28    29    1
    31    29    30    1
    32    29    37    1
    33    30    31    1
    34    30    34    1
    35    31    32    1
    36    31    35    1
    37    32    33    1
    38    32    36    1
    39    33    41    1
    40    33    37    1
    41    41    42    1
    42    34    38    1
    43    35    39    1
    44    36    40    1
    45    42    43    1
@<TRIPOS>MOLECULE
GDU
 43 45 0 0 0
SMALL
GASTEIGER

@<TRIPOS>ATOM
      1 P          18.3151   69.7620   -2.7991 P.3     1  UNL1        0.2189
      2 O          19.0987   68.9937   -3.7916 O.2     1  UNL1       -0.5170
      3 O          17.1427   68.8317   -2.2047 O.3     1  UNL1       -0.4371
      4 O          19.2808   70.2374   -1.6040 O.3     1  UNL1       -0.3112
      5 C          20.0862   71.2983   -2.1200 C.3     1  UNL1        0.1811
      6 C          22.0768   72.8345    0.4500 C.3     1  UNL1        0.2383
      7 C          22.3838   73.6600   -0.8256 C.3     1  UNL1        0.1895
      8 O          22.6837   75.0178   -0.4943 O.3     1  UNL1       -0.3779
      9 C          21.0464   73.5633   -1.6048 C.3     1  UNL1        0.1713
     10 C          20.3579   72.3192   -1.0136 C.3     1  UNL1        0.1764
     11 O          21.2511   71.7556   -0.0375 O.3     1  UNL1       -0.3308
     12 O          20.2550   74.7328   -1.3860 O.3     1  UNL1       -0.3794
     13 H          22.8647   75.4747   -1.3276 H       1  UNL1        0.2106
     14 H          20.7639   75.4825   -1.7231 H       1  UNL1        0.2105
     15 N          23.3113   72.3135    1.0394 N.ar    1  UNL1       -0.2551
     16 C          23.9686   71.3100    0.4317 C.ar    1  UNL1        0.3323
     17 N          25.1077   70.8151    0.9508 N.ar    1  UNL1       -0.2743
     18 C          25.6046   71.3138    2.0991 C.ar    1  UNL1        0.2626
     19 C          24.9198   72.3671    2.7532 C.ar    1  UNL1        0.0795
     20 C          23.7818   72.8476    2.2087 C.ar    1  UNL1        0.0869
     21 O          23.5328   70.8502   -0.6050 O.2     1  UNL1       -0.2464
     22 O          26.6330   70.8633    2.5722 O.2     1  UNL1       -0.2670
     23 H          25.5713   70.0936    0.4965 H       1  UNL1        0.1734
     24 O          17.6657   71.0517   -3.5114 O.3     1  UNL1       -0.2703
     25 P          16.6313   70.5036   -4.6157 P.3     1  UNL1        0.2208
     26 O          15.9719   69.2798   -4.1091 O.2     1  UNL1       -0.5170
     27 O          15.5179   71.6288   -4.9129 O.3     1  UNL1       -0.4371
     28 O          17.4249   70.1637   -5.9739 O.3     1  UNL1       -0.2858
     29 C          17.5851   71.3948   -6.6800 C.3     1  UNL1        0.2704
     30 C          17.3231   71.1654   -8.1693 C.3     1  UNL1        0.1967
     31 C          18.3037   70.1108   -8.6915 C.3     1  UNL1        0.1715
     32 C          19.7294   70.5508   -8.3403 C.3     1  UNL1        0.1694
     33 C          19.8094   70.8251   -6.8365 C.3     1  UNL1        0.1761
     34 O          15.9823   70.7077   -8.3545 O.3     1  UNL1       -0.3775
     35 O          18.1709   69.9920  -10.1095 O.3     1  UNL1       -0.3794
     36 O          20.0555   71.7374   -9.0653 O.3     1  UNL1       -0.3794
     37 O          18.9124   71.8797   -6.4911 O.3     1  UNL1       -0.3258
     38 H          15.4014   71.3977   -8.0062 H       1  UNL1        0.2106
     39 H          17.2592   69.7262  -10.2839 H       1  UNL1        0.2105
     40 H          19.9865   71.5197  -10.0040 H       1  UNL1        0.2105
     41 C          21.2382   71.2323   -6.4694 C.3     1  UNL1        0.1693
     42 O          21.9377   71.6293   -7.6501 O.3     1  UNL1       -0.3794
     43 H          22.8311   71.8782   -7.3758 H       1  UNL1        0.2105
@<TRIPOS>BOND
     1    15    16   ar
     2    15    20   ar
     3    15     6    1
     4    16    17   ar
     5    16    21    2
     6    17    18   ar
     7    17    23    1
     8    18    19   ar
     9    18    22    2
    10    19    20   ar
    11     6     7    1
    12     6    11    1
    13     7     8    1
    14     7     9    1
    15     8    13    1
    16     9    10    1
    17     9    12    1
    18    10    11    1
    19    10     5    1
    20    12    14    1
    21     5     4    1
    22     4     1    1
    23     1     2    2
    24     1     3    1
    25     1    24    1
    26    24    25    1
    27    25    26    2
    28    25    27    1
    29    25    28    1
    30    28    29    1
    31    29    30    1
    32    29    37    1
    33    30    31    1
    34    30    34    1
    35    31    32    1
    36    31    35    1
    37    32    33    1
    38    32    36    1
    39    33    41    1
    40    33    37    1
    41    41    42    1
    42    34    38    1
    43    35    39    1
    44    36    40    1
    45    42    43    1
@<TRIPOS>MOLECULE
GDU
 43 45 0 0 0
SMALL
GASTEIGER

@<TRIPOS>ATOM
      1 P          19.0278   74.1951   -2.7693 P.3     1  UNL1        0.2189
      2 O          19.4284   74.6088   -4.1324 O.2     1  UNL1       -0.5170
      3 O          18.1016   75.3370   -2.1125 O.3     1  UNL1       -0.4371
      4 O          18.2049   72.8154   -2.8469 O.3     1  UNL1       -0.3112
      5 C          16.8662   73.1522   -3.2144 C.3     1  UNL1        0.1811
      6 C          16.6474   70.7061   -5.8405 C.3     1  UNL1        0.2383
      7 C          17.4212   69.9893   -4.7045 C.3     1  UNL1        0.1895
      8 O          17.1624   68.5836   -4.7194 O.3     1  UNL1       -0.3779
      9 C          16.8206   70.6489   -3.4358 C.3     1  UNL1        0.1713
     10 C          16.2252   71.9733   -3.9488 C.3     1  UNL1        0.1764
     11 O          16.5132   72.0589   -5.3551 O.3     1  UNL1       -0.3308
     12 O          15.8017   69.8183   -2.8756 O.3     1  UNL1       -0.3794
     13 H          17.6711   68.1987   -3.9921 H       1  UNL1        0.2106
     14 H          16.2243   68.9845   -2.6287 H       1  UNL1        0.2105
     15 N          17.4146   70.6791   -7.0869 N.ar    1  UNL1       -0.2551
     16 C          16.7705   70.6013   -8.2648 C.ar    1  UNL1        0.3323
     17 N          17.4520   70.5784   -9.4253 N.ar    1  UNL1       -0.2743
     18 C          18.7982   70.6234   -9.4244 C.ar    1  UNL1        0.2626
     19 C          19.4903   70.6996   -8.1909 C.ar    1  UNL1        0.0795
     20 C          18.7821   70.7253   -7.0419 C.ar    1  UNL1        0.0869
     21 O          15.5564   70.5606   -8.2815 O.2     1  UNL1       -0.2464
     22 O          19.4161   70.5979  -10.4742 O.2     1  UNL1       -0.2670
     23 H          16.9707   70.5264  -10.2664 H       1  UNL1        0.1734
     24 O          20.3432   73.9868   -1.8645 O.3     1  UNL1       -0.2703
     25 P          19.9012   73.1013   -0.5954 P.3     1  UNL1        0.2208
     26 O          18.5511   73.5138   -0.1526 O.2     1  UNL1       -0.5170
     27 O          19.8774   71.5449   -1.0094 O.3     1  UNL1       -0.4371
     28 O          20.9508   73.3200    0.6048 O.3     1  UNL1       -0.2858
     29 C          20.5240   72.4900    1.6858 C.3     1  UNL1        0.2704
     30 C          20.2574   73.3559    2.9180 C.3     1  UNL1        0.1967
     31 C          21.5405   74.1069    3.2868 C.3     1  UNL1        0.1715
     32 C          22.6774   73.0899    3.4378 C.3     1  UNL1        0.1694
     33 C          22.7617   72.2449    2.1642 C.3     1  UNL1        0.1761
     34 O          19.2187   74.2933    2.6287 O.3     1  UNL1       -0.3775
     35 O          21.3509   74.8051    4.5193 O.3     1  UNL1       -0.3794
     36 O          22.4177   72.2461    4.5605 O.3     1  UNL1       -0.3794
     37 O          21.5395   71.5327    1.9773 O.3     1  UNL1       -0.3258
     38 H          18.4347   73.7777    2.3954 H       1  UNL1        0.2106
     39 H          20.6216   75.4227    4.3816 H       1  UNL1        0.2105
     40 H          22.3672   72.8198    5.3361 H       1  UNL1        0.2105
     41 C          23.9164   71.2485    2.2909 C.3     1  UNL1        0.1693
     42 O          25.1499   71.9118    2.0088 O.3     1  UNL1       -0.3794
     43 H          25.8502   71.2511    2.1000 H       1  UNL1        0.2105
@<TRIPOS>BOND
     1    15    16   ar
     2    15    20   ar
     3    15     6    1
     4    16    17   ar
     5    16    21    2
     6    17    18   ar
     7    17    23    1
     8    18    19   ar
     9    18    22    2
    10    19    20   ar
    11     6     7    1
    12     6    11    1
    13     7     8    1
    14     7     9    1
    15     8    13    1
    16     9    10    1
    17     9    12    1
    18    10    11    1
    19    10     5    1
    20    12    14    1
    21     5     4    1
    22     4     1    1
    23     1     2    2
    24     1     3    1
    25     1    24    1
    26    24    25    1
    27    25    26    2
    28    25    27    1
    29    25    28    1
    30    28    29    1
    31    29    30    1
    32    29    37    1
    33    30    31    1
    34    30    34    1
    35    31    32    1
    36    31    35    1
    37    32    33    1
    38    32    36    1
    39    33    41    1
    40    33    37    1
    41    41    42    1
    42    34    38    1
    43    35    39    1
    44    36    40    1
    45    42    43    1
@<TRIPOS>MOLECULE
GDU
 43 45 0 0 0
SMALL
GASTEIGER

@<TRIPOS>ATOM
      1 P          16.0169   71.6380   -2.7260 P.3     1  UNL1        0.2189
      2 O          15.4830   71.5564   -4.1036 O.2     1  UNL1       -0.5170
      3 O          15.3176   72.8642   -1.9513 O.3     1  UNL1       -0.4371
      4 O          15.7072   70.2649   -1.9478 O.3     1  UNL1       -0.3112
      5 C          14.7756   70.5780   -0.9111 C.3     1  UNL1        0.1811
      6 C          12.6197   68.0734    0.5055 C.3     1  UNL1        0.2383
      7 C          11.8763   69.4112    0.7517 C.3     1  UNL1        0.1895
      8 O          10.4602   69.2161    0.7465 O.3     1  UNL1       -0.3779
      9 C          12.3221   70.2598   -0.4675 C.3     1  UNL1        0.1713
     10 C          13.6182   69.5782   -0.9440 C.3     1  UNL1        0.1764
     11 O          13.8879   68.4890   -0.0445 O.3     1  UNL1       -0.3308
     12 O          11.3256   70.2258   -1.4911 O.3     1  UNL1       -0.3794
     13 H          10.0589   70.0820    0.9045 H       1  UNL1        0.2106
     14 H          10.5233   70.6113   -1.1139 H       1  UNL1        0.2105
     15 N          12.8150   67.3503    1.7632 N.ar    1  UNL1       -0.2551
     16 C          12.5608   66.0311    1.8204 C.ar    1  UNL1        0.3323
     17 N          12.7356   65.3421    2.9634 N.ar    1  UNL1       -0.2743
     18 C          13.1609   65.9691    4.0771 C.ar    1  UNL1        0.2626
     19 C          13.4271   67.3596    4.0332 C.ar    1  UNL1        0.0795
     20 C          13.2476   68.0256    2.8727 C.ar    1  UNL1        0.0869
     21 O          12.1770   65.4518    0.8238 O.2     1  UNL1       -0.2464
     22 O          13.3148   65.3472    5.1134 O.2     1  UNL1       -0.2670
     23 H          12.5514   64.3896    2.9855 H       1  UNL1        0.1734
     24 O          17.6081   71.8776   -2.7816 O.3     1  UNL1       -0.2703
     25 P          18.2844   70.4506   -3.0917 P.3     1  UNL1        0.2208
     26 O          18.9869   69.9650   -1.8835 O.2     1  UNL1       -0.5170
     27 O          17.1418   69.3947   -3.5083 O.3     1  UNL1       -0.4371
     28 O          19.3366   70.6053   -4.2996 O.3     1  UNL1       -0.2858
     29 C          18.9854   71.7960   -5.0059 C.3     1  UNL1        0.2704
     30 C          18.4523   71.4276   -6.3914 C.3     1  UNL1        0.1967
     31 C          19.5308   70.6474   -7.1493 C.3     1  UNL1        0.1715
     32 C          20.8244   71.4697   -7.1455 C.3     1  UNL1        0.1694
     33 C          21.1788   71.8334   -5.7015 C.3     1  UNL1        0.1761
     34 O          17.2820   70.6197   -6.2547 O.3     1  UNL1       -0.3775
     35 O          19.1051   70.4238   -8.4951 O.3     1  UNL1       -0.3794
     36 O          20.6356   72.6609   -7.9107 O.3     1  UNL1       -0.3794
     37 O          20.1367   72.6267   -5.1353 O.3     1  UNL1       -0.3258
     38 H          16.6345   71.1468   -5.7669 H       1  UNL1        0.2106
     39 H          18.2855   69.9155   -8.4486 H       1  UNL1        0.2105
     40 H          20.4093   72.3840   -8.8082 H       1  UNL1        0.2105
     41 C          22.4879   72.6258   -5.6836 C.3     1  UNL1        0.1693
     42 O          23.2172   72.3665   -6.8844 O.3     1  UNL1       -0.3794
     43 H          24.0327   72.8839   -6.8339 H       1  UNL1        0.2105
@<TRIPOS>BOND
     1    15    16   ar
     2    15    20   ar
     3    15     6    1
     4    16    17   ar
     5    16    21    2
     6    17    18   ar
     7    17    23    1
     8    18    19   ar
     9    18    22    2
    10    19    20   ar
    11     6     7    1
    12     6    11    1
    13     7     8    1
    14     7     9    1
    15     8    13    1
    16     9    10    1
    17     9    12    1
    18    10    11    1
    19    10     5    1
    20    12    14    1
    21     5     4    1
    22     4     1    1
    23     1     2    2
    24     1     3    1
    25     1    24    1
    26    24    25    1
    27    25    26    2
    28    25    27    1
    29    25    28    1
    30    28    29    1
    31    29    30    1
    32    29    37    1
    33    30    31    1
    34    30    34    1
    35    31    32    1
    36    31    35    1
    37    32    33    1
    38    32    36    1
    39    33    41    1
    40    33    37    1
    41    41    42    1
    42    34    38    1
    43    35    39    1
    44    36    40    1
    45    42    43    1
@<TRIPOS>MOLECULE
GDU
 43 45 0 0 0
SMALL
GASTEIGER

@<TRIPOS>ATOM
      1 P          16.7156   69.4260   -2.9228 P.3     1  UNL1        0.2189
      2 O          17.2929   68.5153   -1.9095 O.2     1  UNL1       -0.5170
      3 O          17.0079   68.8444   -4.3956 O.3     1  UNL1       -0.4371
      4 O          15.1274   69.5427   -2.6974 O.3     1  UNL1       -0.3112
      5 C          14.9200   69.7120   -1.2942 C.3     1  UNL1        0.1811
      6 C          12.4639   68.1876    0.8438 C.3     1  UNL1        0.2383
      7 C          12.4136   69.6940    1.2058 C.3     1  UNL1        0.1895
      8 O          11.1001   70.0750    1.6216 O.3     1  UNL1       -0.3779
      9 C          12.7832   70.3648   -0.1428 C.3     1  UNL1        0.1713
     10 C          13.5072   69.2546   -0.9269 C.3     1  UNL1        0.1764
     11 O          13.5743   68.0986   -0.0741 O.3     1  UNL1       -0.3308
     12 O          11.6038   70.7852   -0.8314 O.3     1  UNL1       -0.3794
     13 H          11.1369   71.0186    1.8317 H       1  UNL1        0.2106
     14 H          11.1652   71.4344   -0.2650 H       1  UNL1        0.2105
     15 N          12.7142   67.3764    2.0364 N.ar    1  UNL1       -0.2551
     16 C          12.4607   66.0561    2.0100 C.ar    1  UNL1        0.3323
     17 N          12.6853   65.2871    3.0917 N.ar    1  UNL1       -0.2743
     18 C          13.1612   65.8332    4.2273 C.ar    1  UNL1        0.2626
     19 C          13.4274   67.2236    4.2714 C.ar    1  UNL1        0.0795
     20 C          13.1971   67.9710    3.1710 C.ar    1  UNL1        0.0869
     21 O          12.0317   65.5491    0.9926 O.2     1  UNL1       -0.2464
     22 O          13.3604   65.1387    5.2084 O.2     1  UNL1       -0.2670
     23 H          12.5008   64.3351    3.0536 H       1  UNL1        0.1734
     24 O          17.3877   70.8821   -2.7792 O.3     1  UNL1       -0.2703
     25 P          18.6212   70.9306   -3.8118 P.3     1  UNL1        0.2208
     26 O          19.2051   72.2900   -3.8190 O.2     1  UNL1       -0.5170
     27 O          19.7429   69.8676   -3.3579 O.3     1  UNL1       -0.4371
     28 O          18.1005   70.5614   -5.2892 O.3     1  UNL1       -0.2858
     29 C          17.8727   71.7963   -5.9696 C.3     1  UNL1        0.2704
     30 C          16.5541   71.7171   -6.7406 C.3     1  UNL1        0.1967
     31 C          16.6281   70.5562   -7.7371 C.3     1  UNL1        0.1715
     32 C          17.8805   70.7329   -8.6031 C.3     1  UNL1        0.1694
     33 C          19.0997   70.8848   -7.6901 C.3     1  UNL1        0.1761
     34 O          15.4779   71.4977   -5.8269 O.3     1  UNL1       -0.3775
     35 O          15.4639   70.5600   -8.5660 O.3     1  UNL1       -0.3794
     36 O          17.7385   71.8983   -9.4165 O.3     1  UNL1       -0.3794
     37 O          18.9475   72.0444   -6.8728 O.3     1  UNL1       -0.3258
     38 H          15.4736   72.2469   -5.2157 H       1  UNL1        0.2106
     39 H          14.7030   70.4588   -7.9802 H       1  UNL1        0.2105
     40 H          16.9578   71.7608   -9.9687 H       1  UNL1        0.2105
     41 C          20.3606   71.0275   -8.5454 C.3     1  UNL1        0.1693
     42 O          19.9901   71.3226   -9.8932 O.3     1  UNL1       -0.3794
     43 H          20.8111   71.4053  -10.3975 H       1  UNL1        0.2105
@<TRIPOS>BOND
     1    15    16   ar
     2    15    20   ar
     3    15     6    1
     4    16    17   ar
     5    16    21    2
     6    17    18   ar
     7    17    23    1
     8    18    19   ar
     9    18    22    2
    10    19    20   ar
    11     6     7    1
    12     6    11    1
    13     7     8    1
    14     7     9    1
    15     8    13    1
    16     9    10    1
    17     9    12    1
    18    10    11    1
    19    10     5    1
    20    12    14    1
    21     5     4    1
    22     4     1    1
    23     1     2    2
    24     1     3    1
    25     1    24    1
    26    24    25    1
    27    25    26    2
    28    25    27    1
    29    25    28    1
    30    28    29    1
    31    29    30    1
    32    29    37    1
    33    30    31    1
    34    30    34    1
    35    31    32    1
    36    31    35    1
    37    32    33    1
    38    32    36    1
    39    33    41    1
    40    33    37    1
    41    41    42    1
    42    34    38    1
    43    35    39    1
    44    36    40    1
    45    42    43    1
@<TRIPOS>MOLECULE
GDU
 43 45 0 0 0
SMALL
GASTEIGER

@<TRIPOS>ATOM
      1 P          22.3319   71.6730   -1.0583 P.3     1  UNL1        0.2189
      2 O          21.9719   72.9898   -0.4874 O.2     1  UNL1       -0.5170
      3 O          21.1284   70.6328   -0.8086 O.3     1  UNL1       -0.4371
      4 O          22.5905   71.8252   -2.6384 O.3     1  UNL1       -0.3112
      5 C          21.3417   71.5811   -3.2875 C.3     1  UNL1        0.1811
      6 C          20.3331   71.0886   -6.7032 C.3     1  UNL1        0.2383
      7 C          20.7432   72.5817   -6.6301 C.3     1  UNL1        0.1895
      8 O          21.2651   73.0292   -7.8834 O.3     1  UNL1       -0.3779
      9 C          21.8513   72.5615   -5.5451 C.3     1  UNL1        0.1713
     10 C          21.5859   71.2615   -4.7634 C.3     1  UNL1        0.1764
     11 O          20.4149   70.6491   -5.3308 O.3     1  UNL1       -0.3308
     12 O          23.1445   72.5329   -6.1523 O.3     1  UNL1       -0.3794
     13 H          21.4998   73.9609   -7.7710 H       1  UNL1        0.2106
     14 H          23.2271   73.3429   -6.6736 H       1  UNL1        0.2105
     15 N          18.9660   70.9511   -7.2083 N.ar    1  UNL1       -0.2551
     16 C          18.7573   70.7498   -8.5213 C.ar    1  UNL1        0.3323
     17 N          17.5105   70.6166   -9.0109 N.ar    1  UNL1       -0.2743
     18 C          16.4457   70.6932   -8.1896 C.ar    1  UNL1        0.2626
     19 C          16.6501   70.9108   -6.8050 C.ar    1  UNL1        0.0795
     20 C          17.9112   71.0366   -6.3399 C.ar    1  UNL1        0.0869
     21 O          19.7080   70.6779   -9.2744 O.2     1  UNL1       -0.2464
     22 O          15.3166   70.5775   -8.6325 O.2     1  UNL1       -0.2670
     23 H          17.3786   70.4674   -9.9607 H       1  UNL1        0.1734
     24 O          23.6680   71.1270   -0.3447 O.3     1  UNL1       -0.2703
     25 P          23.3540   71.0427    1.2315 P.3     1  UNL1        0.2208
     26 O          22.0933   70.2981    1.4440 O.2     1  UNL1       -0.5170
     27 O          24.5598   70.2796    1.9786 O.3     1  UNL1       -0.4371
     28 O          23.2081   72.5291    1.8310 O.3     1  UNL1       -0.2858
     29 C          23.0725   72.3943    3.2463 C.3     1  UNL1        0.2704
     30 C          21.7188   72.9557    3.6839 C.3     1  UNL1        0.1967
     31 C          21.6323   74.4280    3.2701 C.3     1  UNL1        0.1715
     32 C          22.8551   75.1660    3.8265 C.3     1  UNL1        0.1694
     33 C          24.1237   74.4375    3.3760 C.3     1  UNL1        0.1761
     34 O          20.6690   72.2179    3.0556 O.3     1  UNL1       -0.3775
     35 O          20.4375   75.0062    3.7998 O.3     1  UNL1       -0.3794
     36 O          22.7919   75.1877    5.2532 O.3     1  UNL1       -0.3794
     37 O          24.1242   73.1075    3.8928 O.3     1  UNL1       -0.3258
     38 H          20.7666   71.2983    3.3379 H       1  UNL1        0.2106
     39 H          19.6979   74.5049    3.4338 H       1  UNL1        0.2105
     40 H          21.9770   75.6494    5.4902 H       1  UNL1        0.2105
     41 C          25.3522   75.1861    3.8978 C.3     1  UNL1        0.1693
     42 O          25.9000   74.4815    5.0135 O.3     1  UNL1       -0.3794
     43 H          26.6705   74.9845    5.3111 H       1  UNL1        0.2105
@<TRIPOS>BOND
     1    15    16   ar
     2    15    20   ar
     3    15     6    1
     4    16    17   ar
     5    16    21    2
     6    17    18   ar
     7    17    23    1
     8    18    19   ar
     9    18    22    2
    10    19    20   ar
    11     6     7    1
    12     6    11    1
    13     7     8    1
    14     7     9    1
    15     8    13    1
    16     9    10    1
    17     9    12    1
    18    10    11    1
    19    10     5    1
    20    12    14    1
    21     5     4    1
    22     4     1    1
    23     1     2    2
    24     1     3    1
    25     1    24    1
    26    24    25    1
    27    25    26    2
    28    25    27    1
    29    25    28    1
    30    28    29    1
    31    29    30    1
    32    29    37    1
    33    30    31    1
    34    30    34    1
    35    31    32    1
    36    31    35    1
    37    32    33    1
    38    32    36    1
    39    33    41    1
    40    33    37    1
    41    41    42    1
    42    34    38    1
    43    35    39    1
    44    36    40    1
    45    42    43    1
@<TRIPOS>MOLECULE
GDU
 43 45 0 0 0
SMALL
GASTEIGER

@<TRIPOS>ATOM
      1 P          22.2216   73.0586   -4.7167 P.3     1  UNL1        0.2189
      2 O          22.0300   74.2042   -3.8000 O.2     1  UNL1       -0.5170
      3 O          23.7965   72.7896   -4.9175 O.3     1  UNL1       -0.4371
      4 O          21.5289   71.7487   -4.0914 O.3     1  UNL1       -0.3112
      5 C          22.4653   71.1843   -3.1721 C.3     1  UNL1        0.1811
      6 C          21.9355   71.5847    0.3615 C.3     1  UNL1        0.2383
      7 C          20.9618   72.5966   -0.2951 C.3     1  UNL1        0.1895
      8 O          19.7942   72.7764    0.5097 O.3     1  UNL1       -0.3779
      9 C          20.6101   71.8896   -1.6299 C.3     1  UNL1        0.1713
     10 C          21.7662   70.8948   -1.8425 C.3     1  UNL1        0.1764
     11 O          22.6914   71.0711   -0.7557 O.3     1  UNL1       -0.3308
     12 O          19.3631   71.2010   -1.5171 O.3     1  UNL1       -0.3794
     13 H          19.2327   73.4144    0.0477 H       1  UNL1        0.2106
     14 H          18.6906   71.8689   -1.3261 H       1  UNL1        0.2105
     15 N          22.8181   72.2592    1.3149 N.ar    1  UNL1       -0.2551
     16 C          22.4420   72.3819    2.6001 C.ar    1  UNL1        0.3323
     17 N          23.2364   72.9944    3.4977 N.ar    1  UNL1       -0.2743
     18 C          24.4232   73.5058    3.1180 C.ar    1  UNL1        0.2626
     19 C          24.8299   73.3891    1.7662 C.ar    1  UNL1        0.0795
     20 C          24.0158   72.7662    0.8877 C.ar    1  UNL1        0.0869
     21 O          21.3745   71.9251    2.9576 O.2     1  UNL1       -0.2464
     22 O          25.1409   74.0647    3.9286 O.2     1  UNL1       -0.2670
     23 H          22.9510   73.0702    4.4221 H       1  UNL1        0.1734
     24 O          21.5501   73.3942   -6.1411 O.3     1  UNL1       -0.2703
     25 P          19.9773   73.6095   -5.8764 P.3     1  UNL1        0.2208
     26 O          19.6346   73.1251   -4.5210 O.2     1  UNL1       -0.5170
     27 O          19.6237   75.1767   -5.9909 O.3     1  UNL1       -0.4371
     28 O          19.1304   72.7882   -6.9710 O.3     1  UNL1       -0.2858
     29 C          19.6041   71.4413   -6.9370 C.3     1  UNL1        0.2704
     30 C          20.1725   71.0667   -8.3067 C.3     1  UNL1        0.1967
     31 C          19.0747   71.2274   -9.3629 C.3     1  UNL1        0.1715
     32 C          17.8487   70.4197   -8.9223 C.3     1  UNL1        0.1694
     33 C          17.4552   70.8451   -7.5056 C.3     1  UNL1        0.1761
     34 O          21.2702   71.9256   -8.6205 O.3     1  UNL1       -0.3775
     35 O          19.5453   70.7421  -10.6221 O.3     1  UNL1       -0.3794
     36 O          18.1635   69.0266   -8.9380 O.3     1  UNL1       -0.3794
     37 O          18.5267   70.5686   -6.6048 O.3     1  UNL1       -0.3258
     38 H          21.9321   71.7970   -7.9275 H       1  UNL1        0.2106
     39 H          20.3208   71.2690  -10.8530 H       1  UNL1        0.2105
     40 H          18.4103   68.8056   -9.8455 H       1  UNL1        0.2105
     41 C          16.2108   70.0688   -7.0689 C.3     1  UNL1        0.1693
     42 O          16.2869   69.7973   -5.6684 O.3     1  UNL1       -0.3794
     43 H          15.4858   69.3088   -5.4341 H       1  UNL1        0.2105
@<TRIPOS>BOND
     1    15    16   ar
     2    15    20   ar
     3    15     6    1
     4    16    17   ar
     5    16    21    2
     6    17    18   ar
     7    17    23    1
     8    18    19   ar
     9    18    22    2
    10    19    20   ar
    11     6     7    1
    12     6    11    1
    13     7     8    1
    14     7     9    1
    15     8    13    1
    16     9    10    1
    17     9    12    1
    18    10    11    1
    19    10     5    1
    20    12    14    1
    21     5     4    1
    22     4     1    1
    23     1     2    2
    24     1     3    1
    25     1    24    1
    26    24    25    1
    27    25    26    2
    28    25    27    1
    29    25    28    1
    30    28    29    1
    31    29    30    1
    32    29    37    1
    33    30    31    1
    34    30    34    1
    35    31    32    1
    36    31    35    1
    37    32    33    1
    38    32    36    1
    39    33    41    1
    40    33    37    1
    41    41    42    1
    42    34    38    1
    43    35    39    1
    44    36    40    1
    45    42    43    1
@<TRIPOS>MOLECULE
GDU
 43 45 0 0 0
SMALL
GASTEIGER

@<TRIPOS>ATOM
      1 P          22.6626   72.4442   -3.8152 P.3     1  UNL1        0.2189
      2 O          22.2096   73.8092   -3.4673 O.2     1  UNL1       -0.5170
      3 O          24.1970   72.4957   -4.3011 O.3     1  UNL1       -0.4371
      4 O          22.5401   71.4924   -2.5245 O.3     1  UNL1       -0.3112
      5 C          22.8772   72.2902   -1.3885 C.3     1  UNL1        0.1811
      6 C          24.4630   71.5394    1.7498 C.3     1  UNL1        0.2383
      7 C          23.0271   71.9788    2.1346 C.3     1  UNL1        0.1895
      8 O          22.5910   71.3128    3.3218 O.3     1  UNL1       -0.3779
      9 C          22.2043   71.5133    0.9052 C.3     1  UNL1        0.1713
     10 C          23.2507   71.3804   -0.2168 C.3     1  UNL1        0.1764
     11 O          24.5197   71.7817    0.3279 O.3     1  UNL1       -0.3308
     12 O          21.5810   70.2547    1.1687 O.3     1  UNL1       -0.3794
     13 H          21.6955   71.6290    3.5060 H       1  UNL1        0.2106
     14 H          20.9834   70.3893    1.9167 H       1  UNL1        0.2105
     15 N          25.4587   72.3512    2.4514 N.ar    1  UNL1       -0.2551
     16 C          26.6786   71.8427    2.6998 C.ar    1  UNL1        0.3323
     17 N          27.6134   72.5694    3.3401 N.ar    1  UNL1       -0.2743
     18 C          27.3365   73.8212    3.7532 C.ar    1  UNL1        0.2626
     19 C          26.0538   74.3677    3.5036 C.ar    1  UNL1        0.0795
     20 C          25.1363   73.6188    2.8557 C.ar    1  UNL1        0.0869
     21 O          26.9431   70.7152    2.3328 O.2     1  UNL1       -0.2464
     22 O          28.1804   74.4780    4.3370 O.2     1  UNL1       -0.2670
     23 H          28.4900   72.1881    3.5072 H       1  UNL1        0.1734
     24 O          21.7445   71.8614   -5.0025 O.3     1  UNL1       -0.2703
     25 P          20.5071   71.1035   -4.3064 P.3     1  UNL1        0.2208
     26 O          20.9843   69.8489   -3.6841 O.2     1  UNL1       -0.5170
     27 O          19.8647   72.0527   -3.1748 O.3     1  UNL1       -0.4371
     28 O          19.3921   70.7631   -5.4158 O.3     1  UNL1       -0.2858
     29 C          19.2294   71.9361   -6.2142 C.3     1  UNL1        0.2704
     30 C          17.7822   72.4213   -6.1172 C.3     1  UNL1        0.1967
     31 C          16.8490   71.3059   -6.5983 C.3     1  UNL1        0.1715
     32 C          17.2958   70.8618   -7.9957 C.3     1  UNL1        0.1694
     33 C          18.7806   70.4927   -7.9497 C.3     1  UNL1        0.1761
     34 O          17.4776   72.7504   -4.7607 O.3     1  UNL1       -0.3775
     35 O          15.5066   71.7933   -6.6531 O.3     1  UNL1       -0.3794
     36 O          17.0922   71.9282   -8.9238 O.3     1  UNL1       -0.3794
     37 O          19.5488   71.6337   -7.5704 O.3     1  UNL1       -0.3258
     38 H          18.0922   73.4493   -4.4985 H       1  UNL1        0.2106
     39 H          15.2731   72.0713   -5.7584 H       1  UNL1        0.2105
     40 H          16.1475   72.1302   -8.9152 H       1  UNL1        0.2105
     41 C          19.2288   70.0150   -9.3328 C.3     1  UNL1        0.1693
     42 O          19.1932   71.1106  -10.2488 O.3     1  UNL1       -0.3794
     43 H          19.4825   70.7684  -11.1058 H       1  UNL1        0.2105
@<TRIPOS>BOND
     1    15    16   ar
     2    15    20   ar
     3    15     6    1
     4    16    17   ar
     5    16    21    2
     6    17    18   ar
     7    17    23    1
     8    18    19   ar
     9    18    22    2
    10    19    20   ar
    11     6     7    1
    12     6    11    1
    13     7     8    1
    14     7     9    1
    15     8    13    1
    16     9    10    1
    17     9    12    1
    18    10    11    1
    19    10     5    1
    20    12    14    1
    21     5     4    1
    22     4     1    1
    23     1     2    2
    24     1     3    1
    25     1    24    1
    26    24    25    1
    27    25    26    2
    28    25    27    1
    29    25    28    1
    30    28    29    1
    31    29    30    1
    32    29    37    1
    33    30    31    1
    34    30    34    1
    35    31    32    1
    36    31    35    1
    37    32    33    1
    38    32    36    1
    39    33    41    1
    40    33    37    1
    41    41    42    1
    42    34    38    1
    43    35    39    1
    44    36    40    1
    45    42    43    1
@<TRIPOS>MOLECULE
GDU
 43 45 0 0 0
SMALL
GASTEIGER

@<TRIPOS>ATOM
      1 P          21.4668   71.8784    0.3211 P.3     1  UNL1        0.2189
      2 O          20.4654   72.6923    1.0452 O.2     1  UNL1       -0.5170
      3 O          21.2445   70.3215    0.6670 O.3     1  UNL1       -0.4371
      4 O          21.2999   72.1054   -1.2624 O.3     1  UNL1       -0.3112
      5 C          20.6787   70.9303   -1.7856 C.3     1  UNL1        0.1811
      6 C          20.4735   70.5892   -5.3590 C.3     1  UNL1        0.2383
      7 C          20.9477   72.0478   -5.1339 C.3     1  UNL1        0.1895
      8 O          21.7768   72.4867   -6.2125 O.3     1  UNL1       -0.3779
      9 C          21.7657   71.9247   -3.8221 C.3     1  UNL1        0.1713
     10 C          21.2429   70.6287   -3.1752 C.3     1  UNL1        0.1764
     11 O          20.2023   70.1133   -4.0236 O.3     1  UNL1       -0.3308
     12 O          23.1611   71.8198   -4.1115 O.3     1  UNL1       -0.3794
     13 H          22.0364   73.3968   -6.0121 H       1  UNL1        0.2106
     14 H          23.4147   72.6339   -4.5671 H       1  UNL1        0.2105
     15 N          19.2579   70.5597   -6.1739 N.ar    1  UNL1       -0.2551
     16 C          19.3517   70.4019   -7.5061 C.ar    1  UNL1        0.3323
     17 N          18.2493   70.3678   -8.2777 N.ar    1  UNL1       -0.2743
     18 C          17.0282   70.5019   -7.7253 C.ar    1  UNL1        0.2626
     19 C          16.9144   70.6746   -6.3241 C.ar    1  UNL1        0.0795
     20 C          18.0359   70.7009   -5.5731 C.ar    1  UNL1        0.0869
     21 O          20.4464   70.2791   -8.0186 O.2     1  UNL1       -0.2464
     22 O          16.0301   70.4759   -8.4236 O.2     1  UNL1       -0.2670
     23 H          18.3354   70.2488   -9.2370 H       1  UNL1        0.1734
     24 O          22.9467   72.3216    0.7749 O.3     1  UNL1       -0.2703
     25 P          23.0966   71.9262    2.3277 P.3     1  UNL1        0.2208
     26 O          21.7601   71.6425    2.8955 O.2     1  UNL1       -0.5170
     27 O          24.0246   70.6164    2.4606 O.3     1  UNL1       -0.4371
     28 O          23.7738   73.1458    3.1302 O.3     1  UNL1       -0.2858
     29 C          22.7129   74.0007    3.5584 C.3     1  UNL1        0.2704
     30 C          22.8937   75.3866    2.9372 C.3     1  UNL1        0.1967
     31 C          24.2509   75.9523    3.3665 C.3     1  UNL1        0.1715
     32 C          24.3392   75.9066    4.8961 C.3     1  UNL1        0.1694
     33 C          24.0505   74.4796    5.3689 C.3     1  UNL1        0.1761
     34 O          22.8456   75.2828    1.5131 O.3     1  UNL1       -0.3775
     35 O          24.3721   77.3033    2.9164 O.3     1  UNL1       -0.3794
     36 O          23.3802   76.8041    5.4572 O.3     1  UNL1       -0.3794
     37 O          22.7307   74.1015    4.9804 O.3     1  UNL1       -0.3258
     38 H          21.9791   74.9167    1.2891 H       1  UNL1        0.2106
     39 H          24.2990   77.2852    1.9538 H       1  UNL1        0.2105
     40 H          23.5969   77.6864    5.1286 H       1  UNL1        0.2105
     41 C          24.1699   74.4153    6.8932 C.3     1  UNL1        0.1693
     42 O          25.5229   74.6685    7.2754 O.3     1  UNL1       -0.3794
     43 H          25.5550   74.6197    8.2407 H       1  UNL1        0.2105
@<TRIPOS>BOND
     1    15    16   ar
     2    15    20   ar
     3    15     6    1
     4    16    17   ar
     5    16    21    2
     6    17    18   ar
     7    17    23    1
     8    18    19   ar
     9    18    22    2
    10    19    20   ar
    11     6     7    1
    12     6    11    1
    13     7     8    1
    14     7     9    1
    15     8    13    1
    16     9    10    1
    17     9    12    1
    18    10    11    1
    19    10     5    1
    20    12    14    1
    21     5     4    1
    22     4     1    1
    23     1     2    2
    24     1     3    1
    25     1    24    1
    26    24    25    1
    27    25    26    2
    28    25    27    1
    29    25    28    1
    30    28    29    1
    31    29    30    1
    32    29    37    1
    33    30    31    1
    34    30    34    1
    35    31    32    1
    36    31    35    1
    37    32    33    1
    38    32    36    1
    39    33    41    1
    40    33    37    1
    41    41    42    1
    42    34    38    1
    43    35    39    1
    44    36    40    1
    45    42    43    1
@<TRIPOS>MOLECULE
GDU
 43 45 0 0 0
SMALL
GASTEIGER

@<TRIPOS>ATOM
      1 P          18.8349   71.5794   -2.0412 P.3     1  UNL1        0.2189
      2 O          19.6637   72.3165   -3.0207 O.2     1  UNL1       -0.5170
      3 O          19.7314   70.4531   -1.3197 O.3     1  UNL1       -0.4371
      4 O          18.2696   72.6037   -0.9374 O.3     1  UNL1       -0.3112
      5 C          19.2804   73.5924   -0.7343 C.3     1  UNL1        0.1811
      6 C          21.5248   73.2209    2.0499 C.3     1  UNL1        0.2383
      7 C          21.6582   74.7095    1.6385 C.3     1  UNL1        0.1895
      8 O          21.9628   75.5263    2.7714 O.3     1  UNL1       -0.3779
      9 C          20.2404   75.0245    1.0946 C.3     1  UNL1        0.1713
     10 C          19.6570   73.6423    0.7475 C.3     1  UNL1        0.1764
     11 O          20.6731   72.6635    1.0264 O.3     1  UNL1       -0.3308
     12 O          19.4528   75.6700    2.0971 O.3     1  UNL1       -0.3794
     13 H          22.0325   76.4356    2.4489 H       1  UNL1        0.2106
     14 H          19.9000   76.4994    2.3137 H       1  UNL1        0.2105
     15 N          22.8327   72.5635    2.0470 N.ar    1  UNL1       -0.2551
     16 C          22.9146   71.2426    1.8087 C.ar    1  UNL1        0.3323
     17 N          24.1051   70.6145    1.7968 N.ar    1  UNL1       -0.2743
     18 C          25.2388   71.3018    2.0347 C.ar    1  UNL1        0.2626
     19 C          25.1673   72.6926    2.2930 C.ar    1  UNL1        0.0795
     20 C          23.9609   73.2983    2.2947 C.ar    1  UNL1        0.0869
     21 O          21.9006   70.6095    1.5919 O.2     1  UNL1       -0.2464
     22 O          26.3165   70.7333    2.0289 O.2     1  UNL1       -0.2670
     23 H          24.1460   69.6614    1.6188 H       1  UNL1        0.1734
     24 O          17.6033   70.8761   -2.8033 O.3     1  UNL1       -0.2703
     25 P          18.2328   69.7588   -3.7754 P.3     1  UNL1        0.2208
     26 O          19.7056   69.8986   -3.7987 O.2     1  UNL1       -0.5170
     27 O          17.8420   68.2936   -3.2325 O.3     1  UNL1       -0.4371
     28 O          17.6510   69.9511   -5.2635 O.3     1  UNL1       -0.2858
     29 C          18.2458   71.1374   -5.7915 C.3     1  UNL1        0.2704
     30 C          17.1567   72.1775   -6.0587 C.3     1  UNL1        0.1967
     31 C          16.1425   71.5947   -7.0477 C.3     1  UNL1        0.1715
     32 C          16.8951   71.1046   -8.2898 C.3     1  UNL1        0.1694
     33 C          18.0036   70.1435   -7.8531 C.3     1  UNL1        0.1761
     34 O          16.4986   72.5068   -4.8341 O.3     1  UNL1       -0.3775
     35 O          15.2013   72.6035   -7.4206 O.3     1  UNL1       -0.3794
     36 O          17.4660   72.2208   -8.9739 O.3     1  UNL1       -0.3794
     37 O          18.9261   70.8261   -7.0052 O.3     1  UNL1       -0.3258
     38 H          17.1744   72.8621   -4.2410 H       1  UNL1        0.2106
     39 H          14.7618   72.8896   -6.6099 H       1  UNL1        0.2105
     40 H          16.7343   72.7999   -9.2241 H       1  UNL1        0.2105
     41 C          18.7397   69.6214   -9.0891 C.3     1  UNL1        0.1693
     42 O          17.9657   69.9009  -10.2569 O.3     1  UNL1       -0.3794
     43 H          18.4636   69.5575  -11.0115 H       1  UNL1        0.2105
@<TRIPOS>BOND
     1    15    16   ar
     2    15    20   ar
     3    15     6    1
     4    16    17   ar
     5    16    21    2
     6    17    18   ar
     7    17    23    1
     8    18    19   ar
     9    18    22    2
    10    19    20   ar
    11     6     7    1
    12     6    11    1
    13     7     8    1
    14     7     9    1
    15     8    13    1
    16     9    10    1
    17     9    12    1
    18    10    11    1
    19    10     5    1
    20    12    14    1
    21     5     4    1
    22     4     1    1
    23     1     2    2
    24     1     3    1
    25     1    24    1
    26    24    25    1
    27    25    26    2
    28    25    27    1
    29    25    28    1
    30    28    29    1
    31    29    30    1
    32    29    37    1
    33    30    31    1
    34    30    34    1
    35    31    32    1
    36    31    35    1
    37    32    33    1
    38    32    36    1
    39    33    41    1
    40    33    37    1
    41    41    42    1
    42    34    38    1
    43    35    39    1
    44    36    40    1
    45    42    43    1
