@<TRIPOS>MOLECULE
UDP-glaA
 43 45 0 0 0
SMALL
GASTEIGER

@<TRIPOS>ATOM
      1 P          22.5032   71.6496   -2.9639 P.3     1  UNL1        0.2189
      2 O          22.2593   73.2284   -2.7084 O.3     1  UNL1       -0.4371
      3 O          23.9102   71.2777   -3.3303 O.2     1  UNL1       -0.5170
      4 O          21.3668   71.2492   -4.0427 O.3     1  UNL1       -0.3112
      5 C          20.5073   70.1610   -3.7489 C.3     1  UNL1        0.1811
      6 O          18.7117   71.3988   -4.7579 O.3     1  UNL1       -0.3308
      7 O          16.9322   70.1285   -2.7058 O.3     1  UNL1       -0.3794
      8 O          16.4314   68.6373   -4.9332 O.3     1  UNL1       -0.3779
      9 C          18.0576   69.5783   -3.3902 C.3     1  UNL1        0.1713
     10 C          17.6951   69.2595   -4.8253 C.3     1  UNL1        0.1895
     11 C          19.0905   70.6845   -3.5606 C.3     1  UNL1        0.1764
     12 C          17.7264   70.6339   -5.4717 C.3     1  UNL1        0.2383
     13 H          17.2220   70.3527   -1.8050 H       1  UNL1        0.2105
     14 H          16.4608   67.8214   -4.4045 H       1  UNL1        0.2106
     15 O          15.9100   70.1693   -7.5836 O.2     1  UNL1       -0.2464
     16 O          19.2431   70.4437  -10.7543 O.2     1  UNL1       -0.2670
     17 N          18.0920   70.5794   -6.8583 N.ar    1  UNL1       -0.2551
     18 N          17.5711   70.3057   -9.1611 N.ar    1  UNL1       -0.2743
     19 C          17.1032   70.3391   -7.8408 C.ar    1  UNL1        0.3323
     20 C          19.4184   70.7627   -7.2332 C.ar    1  UNL1        0.0869
     21 C          19.8486   70.7284   -8.4964 C.ar    1  UNL1        0.0795
     22 C          18.8798   70.4819   -9.5828 C.ar    1  UNL1        0.2626
     23 H          16.8777   70.1338   -9.8842 H       1  UNL1        0.1734
     24 O          21.9618   70.9736   -1.5983 O.3     1  UNL1       -0.2703
     25 P          21.2312   71.6230   -0.3110 P.3     1  UNL1        0.2208
     26 O          21.2131   70.4087    0.7573 O.3     1  UNL1       -0.4371
     27 O          19.8810   72.2132   -0.6017 O.2     1  UNL1       -0.5170
     28 O          22.3039   72.6726    0.2819 O.3     1  UNL1       -0.2858
     29 O          23.3607   71.9052    2.2551 O.3     1  UNL1       -0.3226
     30 O          24.6963   75.8348    2.0236 O.3     1  UNL1       -0.3794
     31 O          21.9270   75.1716    1.3934 O.3     1  UNL1       -0.3775
     32 O          25.2611   73.6124    3.5637 O.3     1  UNL1       -0.3792
     33 C          24.2704   74.5525    1.5712 C.3     1  UNL1        0.1718
     34 C          22.8337   74.2751    2.0266 C.3     1  UNL1        0.1968
     35 C          25.2143   73.4887    2.1384 C.3     1  UNL1        0.1723
     36 C          22.4272   72.8341    1.6943 C.3     1  UNL1        0.2706
     37 C          24.6931   72.0980    1.7828 C.3     1  UNL1        0.1830
     38 H          25.6091   75.9664    1.7153 H       1  UNL1        0.2105
     39 H          21.0325   74.9523    1.7042 H       1  UNL1        0.2106
     40 H          24.4272   73.2732    3.9307 H       1  UNL1        0.2106
     41 O          26.7819   71.4524    2.6337 O.co2   1  UNL1       -0.5466
     42 O          25.1017   69.9147    2.7295 O.co2   1  UNL1       -0.5466
     43 C          25.5130   71.0253    2.4263 C.2     1  UNL1        0.0799
@<TRIPOS>UNITY_ATOM_ATTR
41 1
charge -1
@<TRIPOS>BOND
     1     1     4    1
     2     1    24    1
     3     1     2    1
     4     1     3    2
     5    25    28    1
     6    25    24    1
     7    25    26    1
     8    25    27    2
     9     6    11    1
    10     6    12    1
    11    29    36    1
    12    29    37    1
    13     7     9    1
    14     7    13    1
    15     8    10    1
    16     8    14    1
    17     4     5    1
    18    28    36    1
    19    30    33    1
    20    30    38    1
    21    31    34    1
    22    31    39    1
    23    32    35    1
    24    32    40    1
    25    41    43   ar
    26    15    19    2
    27    42    43   ar
    28    16    22    2
    29    17    12    1
    30    17    19   ar
    31    17    20   ar
    32    18    19   ar
    33    18    22   ar
    34    18    23    1
    35     9    10    1
    36     9    11    1
    37    10    12    1
    38    11     5    1
    39    33    34    1
    40    33    35    1
    41    34    36    1
    42    35    37    1
    43    37    43    1
    44    20    21   ar
    45    21    22   ar
@<TRIPOS>MOLECULE
UDP-glaA
 43 45 0 0 0
SMALL
GASTEIGER

@<TRIPOS>ATOM
      1 P          22.7323   72.1536   -3.9896 P.3     1  UNL1        0.2189
      2 O          23.4256   72.8075   -5.2970 O.3     1  UNL1       -0.4371
      3 O          23.6015   71.2014   -3.2216 O.2     1  UNL1       -0.5170
      4 O          21.3437   71.5423   -4.5495 O.3     1  UNL1       -0.3112
      5 C          20.6499   70.5968   -3.7532 C.3     1  UNL1        0.1811
      6 O          18.7754   71.7027   -4.7717 O.3     1  UNL1       -0.3308
      7 O          17.1127   70.4864   -2.5928 O.3     1  UNL1       -0.3794
      8 O          16.6052   68.8492   -4.7136 O.3     1  UNL1       -0.3779
      9 C          18.2381   69.9413   -3.2813 C.3     1  UNL1        0.1713
     10 C          17.8452   69.5252   -4.6831 C.3     1  UNL1        0.1895
     11 C          19.2194   71.0749   -3.5487 C.3     1  UNL1        0.1764
     12 C          17.8007   70.8597   -5.4078 C.3     1  UNL1        0.2383
     13 H          17.4206   70.7740   -1.7164 H       1  UNL1        0.2105
     14 H          16.6839   68.0672   -4.1404 H       1  UNL1        0.2106
     15 O          15.9356   70.2281   -7.4322 O.2     1  UNL1       -0.2464
     16 O          19.1617   70.4187  -10.7178 O.2     1  UNL1       -0.2670
     17 N          18.1256   70.7384   -6.8003 N.ar    1  UNL1       -0.2551
     18 N          17.5434   70.3229   -9.0669 N.ar    1  UNL1       -0.2743
     19 C          17.1149   70.4166   -7.7362 C.ar    1  UNL1        0.3323
     20 C          19.4340   70.9375   -7.2267 C.ar    1  UNL1        0.0869
     21 C          19.8265   70.8451   -8.4992 C.ar    1  UNL1        0.0795
     22 C          18.8330   70.5118   -9.5391 C.ar    1  UNL1        0.2626
     23 H          16.8339   70.0919   -9.7571 H       1  UNL1        0.1734
     24 O          22.2471   73.4484   -3.1510 O.3     1  UNL1       -0.2703
     25 P          23.0926   74.6148   -2.4181 P.3     1  UNL1        0.2208
     26 O          22.3952   75.9719   -2.9549 O.3     1  UNL1       -0.4371
     27 O          24.5740   74.5434   -2.6550 O.2     1  UNL1       -0.5170
     28 O          22.6603   74.5197   -0.8663 O.3     1  UNL1       -0.2858
     29 O          21.5700   72.5205   -0.2232 O.3     1  UNL1       -0.3226
     30 O          20.9303   74.9626    3.0793 O.3     1  UNL1       -0.3794
     31 O          20.7195   76.0395    0.3771 O.3     1  UNL1       -0.3775
     32 O          20.5306   72.3044    2.4436 O.3     1  UNL1       -0.3792
     33 C          21.6034   74.4118    1.9506 C.3     1  UNL1        0.1718
     34 C          20.7888   74.6490    0.6744 C.3     1  UNL1        0.1968
     35 C          21.7996   72.9100    2.1753 C.3     1  UNL1        0.1723
     36 C          21.4172   73.9133   -0.5157 C.3     1  UNL1        0.2706
     37 C          22.3907   72.2759    0.9180 C.3     1  UNL1        0.1830
     38 H          21.4793   74.7873    3.8625 H       1  UNL1        0.2105
     39 H          20.2042   76.1393   -0.4410 H       1  UNL1        0.2106
     40 H          20.0279   72.2595    1.6127 H       1  UNL1        0.2106
     41 O          23.7566   70.4035    1.2815 O.co2   1  UNL1       -0.5466
     42 O          21.5337   70.0189    0.9534 O.co2   1  UNL1       -0.5466
     43 C          22.4792   70.7883    1.0453 C.2     1  UNL1        0.0799
@<TRIPOS>UNITY_ATOM_ATTR
41 1
charge -1
@<TRIPOS>BOND
     1     1     4    1
     2     1    24    1
     3     1     2    1
     4     1     3    2
     5    25    28    1
     6    25    24    1
     7    25    26    1
     8    25    27    2
     9     6    11    1
    10     6    12    1
    11    29    36    1
    12    29    37    1
    13     7     9    1
    14     7    13    1
    15     8    10    1
    16     8    14    1
    17     4     5    1
    18    28    36    1
    19    30    33    1
    20    30    38    1
    21    31    34    1
    22    31    39    1
    23    32    35    1
    24    32    40    1
    25    41    43   ar
    26    15    19    2
    27    42    43   ar
    28    16    22    2
    29    17    12    1
    30    17    19   ar
    31    17    20   ar
    32    18    19   ar
    33    18    22   ar
    34    18    23    1
    35     9    10    1
    36     9    11    1
    37    10    12    1
    38    11     5    1
    39    33    34    1
    40    33    35    1
    41    34    36    1
    42    35    37    1
    43    37    43    1
    44    20    21   ar
    45    21    22   ar
@<TRIPOS>MOLECULE
UDP-glaA
 43 45 0 0 0
SMALL
GASTEIGER

@<TRIPOS>ATOM
      1 P          22.9898   71.3867   -2.3652 P.3     1  UNL1        0.2189
      2 O          22.7595   72.9759   -2.5620 O.3     1  UNL1       -0.4371
      3 O          24.2248   70.8402   -3.0196 O.2     1  UNL1       -0.5170
      4 O          21.5917   70.7283   -2.8420 O.3     1  UNL1       -0.3112
      5 C          20.9513   71.2564   -3.9910 C.3     1  UNL1        0.1811
      6 O          18.8249   71.9277   -4.8866 O.3     1  UNL1       -0.3308
      7 O          17.6079   70.6176   -2.4796 O.3     1  UNL1       -0.3794
      8 O          17.2280   68.7501   -4.4299 O.3     1  UNL1       -0.3779
      9 C          18.7505   70.2258   -3.2403 C.3     1  UNL1        0.1713
     10 C          18.3209   69.6347   -4.5664 C.3     1  UNL1        0.1895
     11 C          19.4804   71.4895   -3.6762 C.3     1  UNL1        0.1764
     12 C          17.9701   70.8771   -5.3672 C.3     1  UNL1        0.2383
     13 H          17.9323   71.0251   -1.6584 H       1  UNL1        0.2105
     14 H          17.4981   68.0434   -3.8184 H       1  UNL1        0.2106
     15 O          15.9194   70.4582   -7.2631 O.2     1  UNL1       -0.2464
     16 O          18.9332   70.2182  -10.7412 O.2     1  UNL1       -0.2670
     17 N          18.1903   70.7027   -6.7744 N.ar    1  UNL1       -0.2551
     18 N          17.4216   70.3384   -8.9937 N.ar    1  UNL1       -0.2743
     19 C          17.0916   70.4976   -7.6414 C.ar    1  UNL1        0.3323
     20 C          19.4840   70.7355   -7.2829 C.ar    1  UNL1        0.0869
     21 C          19.7822   70.5826   -8.5750 C.ar    1  UNL1        0.0795
     22 C          18.6926   70.3630   -9.5466 C.ar    1  UNL1        0.2626
     23 H          16.6475   70.1891   -9.6354 H       1  UNL1        0.1734
     24 O          22.9448   71.2104   -0.7583 O.3     1  UNL1       -0.2703
     25 P          21.7752   71.5287    0.3109 P.3     1  UNL1        0.2208
     26 O          21.6439   70.1460    1.1399 O.3     1  UNL1       -0.4371
     27 O          20.4914   72.0069   -0.3046 O.2     1  UNL1       -0.5170
     28 O          22.4431   72.5664    1.3507 O.3     1  UNL1       -0.2858
     29 O          24.1984   72.5234    2.9370 O.3     1  UNL1       -0.3226
     30 O          21.2073   74.5400    5.0023 O.3     1  UNL1       -0.3794
     31 O          20.5632   72.2287    3.3443 O.3     1  UNL1       -0.3775
     32 O          23.8820   73.9724    5.3944 O.3     1  UNL1       -0.3792
     33 C          21.9946   74.1144    3.8936 C.3     1  UNL1        0.1718
     34 C          21.8880   72.5963    3.7138 C.3     1  UNL1        0.1968
     35 C          23.4526   74.5117    4.1400 C.3     1  UNL1        0.1723
     36 C          22.8625   72.1074    2.6350 C.3     1  UNL1        0.2706
     37 C          24.3345   73.9404    3.0318 C.3     1  UNL1        0.1830
     38 H          21.3065   75.5042    5.0797 H       1  UNL1        0.2105
     39 H          20.5469   71.2632    3.2329 H       1  UNL1        0.2106
     40 H          24.0110   73.0144    5.2908 H       1  UNL1        0.2106
     41 O          25.9432   75.3103    4.0512 O.co2   1  UNL1       -0.5466
     42 O          26.7037   73.4932    2.9038 O.co2   1  UNL1       -0.5466
     43 C          25.7838   74.1938    3.3005 C.2     1  UNL1        0.0799
@<TRIPOS>UNITY_ATOM_ATTR
41 1
charge -1
@<TRIPOS>BOND
     1     1     4    1
     2     1    24    1
     3     1     2    1
     4     1     3    2
     5    25    28    1
     6    25    24    1
     7    25    26    1
     8    25    27    2
     9     6    11    1
    10     6    12    1
    11    29    36    1
    12    29    37    1
    13     7     9    1
    14     7    13    1
    15     8    10    1
    16     8    14    1
    17     4     5    1
    18    28    36    1
    19    30    33    1
    20    30    38    1
    21    31    34    1
    22    31    39    1
    23    32    35    1
    24    32    40    1
    25    41    43   ar
    26    15    19    2
    27    42    43   ar
    28    16    22    2
    29    17    12    1
    30    17    19   ar
    31    17    20   ar
    32    18    19   ar
    33    18    22   ar
    34    18    23    1
    35     9    10    1
    36     9    11    1
    37    10    12    1
    38    11     5    1
    39    33    34    1
    40    33    35    1
    41    34    36    1
    42    35    37    1
    43    37    43    1
    44    20    21   ar
    45    21    22   ar
@<TRIPOS>MOLECULE
UDP-glaA
 43 45 0 0 0
SMALL
GASTEIGER

@<TRIPOS>ATOM
      1 P          20.6208   71.7620   -2.6118 P.3     1  UNL1        0.2189
      2 O          21.2361   70.7050   -1.5528 O.3     1  UNL1       -0.4371
      3 O          19.5439   72.6524   -2.0644 O.2     1  UNL1       -0.5170
      4 O          20.2003   70.8464   -3.8768 O.3     1  UNL1       -0.3112
      5 C          19.3097   69.7645   -3.6637 C.3     1  UNL1        0.1811
      6 O          17.7450   71.0767   -4.9303 O.3     1  UNL1       -0.3308
      7 O          15.5974   69.6718   -3.3794 O.3     1  UNL1       -0.3794
      8 O          15.5788   68.3428   -5.7604 O.3     1  UNL1       -0.3779
      9 C          16.8449   69.1670   -3.8555 C.3     1  UNL1        0.1713
     10 C          16.7869   68.9512   -5.3531 C.3     1  UNL1        0.1895
     11 C          17.8788   70.2786   -3.7335 C.3     1  UNL1        0.1764
     12 C          16.9349   70.3676   -5.8822 C.3     1  UNL1        0.2383
     13 H          15.6945   69.8310   -2.4250 H       1  UNL1        0.2105
     14 H          15.5083   67.4916   -5.2950 H       1  UNL1        0.2106
     15 O          15.5679   70.5804   -8.3442 O.2     1  UNL1       -0.2464
     16 O          19.5024   70.5167  -10.7430 O.2     1  UNL1       -0.2670
     17 N          17.5768   70.4093   -7.1649 N.ar    1  UNL1       -0.2551
     18 N          17.5280   70.5480   -9.5371 N.ar    1  UNL1       -0.2743
     19 C          16.7986   70.5165   -8.3412 C.ar    1  UNL1        0.3323
     20 C          18.9632   70.3441   -7.2487 C.ar    1  UNL1        0.0869
     21 C          19.6439   70.3758   -8.3965 C.ar    1  UNL1        0.0795
     22 C          18.9064   70.4856   -9.6707 C.ar    1  UNL1        0.2626
     23 H          16.9892   70.6241  -10.3956 H       1  UNL1        0.1734
     24 O          21.9318   72.5423   -3.1481 O.3     1  UNL1       -0.2703
     25 P          23.5047   72.2752   -2.8889 P.3     1  UNL1        0.2208
     26 O          24.1969   72.7715   -4.2639 O.3     1  UNL1       -0.4371
     27 O          23.8341   70.8613   -2.5041 O.2     1  UNL1       -0.5170
     28 O          23.9323   73.3809   -1.7941 O.3     1  UNL1       -0.2858
     29 O          22.9833   72.5527    0.2090 O.3     1  UNL1       -0.3226
     30 O          25.2027   75.7927    1.5713 O.3     1  UNL1       -0.3794
     31 O          23.6716   75.9813   -0.9038 O.3     1  UNL1       -0.3775
     32 O          23.7992   73.7032    2.7089 O.3     1  UNL1       -0.3792
     33 C          24.8569   74.6703    0.7644 C.3     1  UNL1        0.1718
     34 C          23.5316   74.9226    0.0377 C.3     1  UNL1        0.1968
     35 C          24.7361   73.4347    1.6605 C.3     1  UNL1        0.1723
     36 C          23.0650   73.6589   -0.6957 C.3     1  UNL1        0.2706
     37 C          24.2280   72.2522    0.8384 C.3     1  UNL1        0.1830
     38 H          26.0445   75.5882    2.0131 H       1  UNL1        0.2105
     39 H          22.8129   76.0977   -1.3442 H       1  UNL1        0.2106
     40 H          22.9030   73.6940    2.3321 H       1  UNL1        0.2106
     41 O          22.6929   71.0562    2.1487 O.co2   1  UNL1       -0.5466
     42 O          24.7948   70.1932    1.9647 O.co2   1  UNL1       -0.5466
     43 C          23.9712   71.0569    1.6999 C.2     1  UNL1        0.0799
@<TRIPOS>UNITY_ATOM_ATTR
41 1
charge -1
@<TRIPOS>BOND
     1     1     4    1
     2     1    24    1
     3     1     2    1
     4     1     3    2
     5    25    28    1
     6    25    24    1
     7    25    26    1
     8    25    27    2
     9     6    11    1
    10     6    12    1
    11    29    36    1
    12    29    37    1
    13     7     9    1
    14     7    13    1
    15     8    10    1
    16     8    14    1
    17     4     5    1
    18    28    36    1
    19    30    33    1
    20    30    38    1
    21    31    34    1
    22    31    39    1
    23    32    35    1
    24    32    40    1
    25    41    43   ar
    26    15    19    2
    27    42    43   ar
    28    16    22    2
    29    17    12    1
    30    17    19   ar
    31    17    20   ar
    32    18    19   ar
    33    18    22   ar
    34    18    23    1
    35     9    10    1
    36     9    11    1
    37    10    12    1
    38    11     5    1
    39    33    34    1
    40    33    35    1
    41    34    36    1
    42    35    37    1
    43    37    43    1
    44    20    21   ar
    45    21    22   ar
@<TRIPOS>MOLECULE
UDP-glaA
 43 45 0 0 0
SMALL
GASTEIGER

@<TRIPOS>ATOM
      1 P          22.9452   71.4575   -2.8305 P.3     1  UNL1        0.2189
      2 O          22.9296   73.0566   -2.5855 O.3     1  UNL1       -0.4371
      3 O          24.2943   70.8777   -3.1401 O.2     1  UNL1       -0.5170
      4 O          21.8053   71.2242   -3.9538 O.3     1  UNL1       -0.3112
      5 C          21.6148   72.2214   -4.9429 C.3     1  UNL1        0.1811
      6 O          20.4971   70.3941   -6.0319 O.3     1  UNL1       -0.3308
      7 O          20.8014   71.9644   -8.5682 O.3     1  UNL1       -0.3794
      8 O          18.2036   72.4343   -7.8850 O.3     1  UNL1       -0.3779
      9 C          20.5485   72.4298   -7.2426 C.3     1  UNL1        0.1713
     10 C          19.1161   72.1381   -6.8480 C.3     1  UNL1        0.1895
     11 C          21.3306   71.5481   -6.2780 C.3     1  UNL1        0.1764
     12 C          19.1730   70.6544   -6.5264 C.3     1  UNL1        0.2383
     13 H          21.7385   72.1370   -8.7621 H       1  UNL1        0.2105
     14 H          18.3066   73.3761   -8.1053 H       1  UNL1        0.2106
     15 O          16.5187   69.8615   -7.0752 O.2     1  UNL1       -0.2464
     16 O          15.5940   69.2155   -2.6068 O.2     1  UNL1       -0.2670
     17 N          18.2174   70.2733   -5.5259 N.ar    1  UNL1       -0.2551
     18 N          16.0599   69.5408   -4.8497 N.ar    1  UNL1       -0.2743
     19 C          16.9096   69.8923   -5.9069 C.ar    1  UNL1        0.3323
     20 C          18.5795   70.2795   -4.1834 C.ar    1  UNL1        0.0869
     21 C          17.7580   69.9411   -3.1872 C.ar    1  UNL1        0.0795
     22 C          16.3743   69.5318   -3.4996 C.ar    1  UNL1        0.2626
     23 H          15.1144   69.2641   -5.1000 H       1  UNL1        0.1734
     24 O          22.2554   70.8784   -1.4874 O.3     1  UNL1       -0.2703
     25 P          21.3549   71.6062   -0.3595 P.3     1  UNL1        0.2208
     26 O          21.1577   70.4540    0.7584 O.3     1  UNL1       -0.4371
     27 O          20.0732   72.1925   -0.8783 O.2     1  UNL1       -0.5170
     28 O          22.3474   72.6768    0.3281 O.3     1  UNL1       -0.2858
     29 O          23.4523   71.8096    2.2325 O.3     1  UNL1       -0.3226
     30 O          24.5342   75.8215    2.3494 O.3     1  UNL1       -0.3794
     31 O          21.8125   75.0407    1.6504 O.3     1  UNL1       -0.3775
     32 O          25.2406   73.5141    3.6936 O.3     1  UNL1       -0.3792
     33 C          24.1908   74.5588    1.7854 C.3     1  UNL1        0.1718
     34 C          22.7750   74.1521    2.2079 C.3     1  UNL1        0.1968
     35 C          25.2010   73.5119    2.2628 C.3     1  UNL1        0.1723
     36 C          22.4610   72.7224    1.7498 C.3     1  UNL1        0.2706
     37 C          24.7694   72.1271    1.7853 C.3     1  UNL1        0.1830
     38 H          25.4366   76.0371    2.0582 H       1  UNL1        0.2105
     39 H          20.9340   74.7387    1.9366 H       1  UNL1        0.2106
     40 H          24.4303   73.0918    4.0257 H       1  UNL1        0.2106
     41 O          24.9380   69.9488    2.6399 O.co2   1  UNL1       -0.5466
     42 O          26.8646   71.1587    2.4940 O.co2   1  UNL1       -0.5466
     43 C          25.6565   71.0568    2.3373 C.2     1  UNL1        0.0799
@<TRIPOS>UNITY_ATOM_ATTR
41 1
charge -1
@<TRIPOS>BOND
     1     1     4    1
     2     1    24    1
     3     1     2    1
     4     1     3    2
     5    25    28    1
     6    25    24    1
     7    25    26    1
     8    25    27    2
     9     6    11    1
    10     6    12    1
    11    29    36    1
    12    29    37    1
    13     7     9    1
    14     7    13    1
    15     8    10    1
    16     8    14    1
    17     4     5    1
    18    28    36    1
    19    30    33    1
    20    30    38    1
    21    31    34    1
    22    31    39    1
    23    32    35    1
    24    32    40    1
    25    41    43   ar
    26    15    19    2
    27    42    43   ar
    28    16    22    2
    29    17    12    1
    30    17    19   ar
    31    17    20   ar
    32    18    19   ar
    33    18    22   ar
    34    18    23    1
    35     9    10    1
    36     9    11    1
    37    10    12    1
    38    11     5    1
    39    33    34    1
    40    33    35    1
    41    34    36    1
    42    35    37    1
    43    37    43    1
    44    20    21   ar
    45    21    22   ar
@<TRIPOS>MOLECULE
UDP-glaA
 43 45 0 0 0
SMALL
GASTEIGER

@<TRIPOS>ATOM
      1 P          22.7116   71.4207   -2.7812 P.3     1  UNL1        0.2189
      2 O          22.7592   73.0281   -2.6041 O.3     1  UNL1       -0.4371
      3 O          24.0420   70.7714   -3.0277 O.2     1  UNL1       -0.5170
      4 O          21.5930   71.1876   -3.9257 O.3     1  UNL1       -0.3112
      5 C          20.6785   70.1157   -3.7708 C.3     1  UNL1        0.1811
      6 O          18.8894   71.4049   -4.7255 O.3     1  UNL1       -0.3308
      7 O          17.1395   70.1930   -2.6134 O.3     1  UNL1       -0.3794
      8 O          16.5228   68.7130   -4.8191 O.3     1  UNL1       -0.3779
      9 C          18.2253   69.6077   -3.3319 C.3     1  UNL1        0.1713
     10 C          17.8074   69.2970   -4.7537 C.3     1  UNL1        0.1895
     11 C          19.2849   70.6820   -3.5388 C.3     1  UNL1        0.1764
     12 C          17.8591   70.6685   -5.4050 C.3     1  UNL1        0.2383
     13 H          17.4647   70.4102   -1.7232 H       1  UNL1        0.2105
     14 H          16.5447   67.8976   -4.2892 H       1  UNL1        0.2106
     15 O          15.9637   70.2463   -7.4554 O.2     1  UNL1       -0.2464
     16 O          19.1987   70.4222  -10.7330 O.2     1  UNL1       -0.2670
     17 N          18.1781   70.6001   -6.8024 N.ar    1  UNL1       -0.2551
     18 N          17.5759   70.3337   -9.0861 N.ar    1  UNL1       -0.2743
     19 C          17.1520   70.3835   -7.7516 C.ar    1  UNL1        0.3323
     20 C          19.4961   70.7468   -7.2205 C.ar    1  UNL1        0.0869
     21 C          19.8842   70.6973   -8.4968 C.ar    1  UNL1        0.0795
     22 C          18.8746   70.4736   -9.5505 C.ar    1  UNL1        0.2626
     23 H          16.8553   70.1782   -9.7858 H       1  UNL1        0.1734
     24 O          21.9617   70.9299   -1.4351 O.3     1  UNL1       -0.2703
     25 P          22.3539   71.1095    0.1226 P.3     1  UNL1        0.2208
     26 O          23.9682   71.2046    0.0903 O.3     1  UNL1       -0.4371
     27 O          21.8140   70.0344    1.0216 O.2     1  UNL1       -0.5170
     28 O          21.8644   72.6006    0.4982 O.3     1  UNL1       -0.2858
     29 O          22.9127   74.4871    1.4686 O.3     1  UNL1       -0.3226
     30 O          19.1416   74.5921    3.2142 O.3     1  UNL1       -0.3794
     31 O          20.5397   72.0574    2.8588 O.3     1  UNL1       -0.3775
     32 O          21.3534   76.2440    3.1179 O.3     1  UNL1       -0.3792
     33 C          20.1323   74.3653    2.2155 C.3     1  UNL1        0.1718
     34 C          21.1542   73.3319    2.7013 C.3     1  UNL1        0.1968
     35 C          20.8343   75.6901    1.9044 C.3     1  UNL1        0.1723
     36 C          22.3160   73.2082    1.7078 C.3     1  UNL1        0.2706
     37 C          21.9936   75.4428    0.9417 C.3     1  UNL1        0.1830
     38 H          18.5193   75.2529    2.8654 H       1  UNL1        0.2105
     39 H          21.2250   71.4361    3.1575 H       1  UNL1        0.2106
     40 H          22.1336   75.7285    3.3839 H       1  UNL1        0.2106
     41 O          21.9788   77.7746    0.6843 O.co2   1  UNL1       -0.5466
     42 O          24.0019   76.7302    0.5683 O.co2   1  UNL1       -0.5466
     43 C          22.7885   76.6886    0.7109 C.2     1  UNL1        0.0799
@<TRIPOS>UNITY_ATOM_ATTR
41 1
charge -1
@<TRIPOS>BOND
     1     1     4    1
     2     1    24    1
     3     1     2    1
     4     1     3    2
     5    25    28    1
     6    25    24    1
     7    25    26    1
     8    25    27    2
     9     6    11    1
    10     6    12    1
    11    29    36    1
    12    29    37    1
    13     7     9    1
    14     7    13    1
    15     8    10    1
    16     8    14    1
    17     4     5    1
    18    28    36    1
    19    30    33    1
    20    30    38    1
    21    31    34    1
    22    31    39    1
    23    32    35    1
    24    32    40    1
    25    41    43   ar
    26    15    19    2
    27    42    43   ar
    28    16    22    2
    29    17    12    1
    30    17    19   ar
    31    17    20   ar
    32    18    19   ar
    33    18    22   ar
    34    18    23    1
    35     9    10    1
    36     9    11    1
    37    10    12    1
    38    11     5    1
    39    33    34    1
    40    33    35    1
    41    34    36    1
    42    35    37    1
    43    37    43    1
    44    20    21   ar
    45    21    22   ar
@<TRIPOS>MOLECULE
UDP-glaA
 43 45 0 0 0
SMALL
GASTEIGER

@<TRIPOS>ATOM
      1 P          21.3614   72.4159   -4.6968 P.3     1  UNL1        0.2189
      2 O          20.7564   73.8864   -4.3981 O.3     1  UNL1       -0.4371
      3 O          22.3564   72.3567   -5.8187 O.2     1  UNL1       -0.5170
      4 O          20.0515   71.4832   -4.8689 O.3     1  UNL1       -0.3112
      5 C          19.4125   70.9910   -3.7033 C.3     1  UNL1        0.1811
      6 O          17.6386   71.7074   -5.1575 O.3     1  UNL1       -0.3308
      7 O          15.7761   70.3185   -3.2618 O.3     1  UNL1       -0.3794
      8 O          15.9930   68.5252   -5.3046 O.3     1  UNL1       -0.3779
      9 C          17.0932   69.9474   -3.6683 C.3     1  UNL1        0.1713
     10 C          17.0738   69.4073   -5.0827 C.3     1  UNL1        0.1895
     11 C          17.9129   71.2215   -3.8248 C.3     1  UNL1        0.1764
     12 C          16.9671   70.6801   -5.9052 C.3     1  UNL1        0.2383
     13 H          15.8438   70.6940   -2.3674 H       1  UNL1        0.2105
     14 H          16.0754   67.7952   -4.6670 H       1  UNL1        0.2106
     15 O          15.5834   70.7770   -8.3652 O.2     1  UNL1       -0.2464
     16 O          19.4640   70.1876  -10.7802 O.2     1  UNL1       -0.2670
     17 N          17.5907   70.5554   -7.1917 N.ar    1  UNL1       -0.2551
     18 N          17.5166   70.4829   -9.5661 N.ar    1  UNL1       -0.2743
     19 C          16.8053   70.6170   -8.3665 C.ar    1  UNL1        0.3323
     20 C          18.9664   70.3739   -7.2804 C.ar    1  UNL1        0.0869
     21 C          19.6299   70.2483   -8.4318 C.ar    1  UNL1        0.0795
     22 C          18.8838   70.3005   -9.7047 C.ar    1  UNL1        0.2626
     23 H          16.9724   70.5235  -10.4236 H       1  UNL1        0.1734
     24 O          21.9424   71.9639   -3.2568 O.3     1  UNL1       -0.2703
     25 P          23.4482   71.9771   -2.6695 P.3     1  UNL1        0.2208
     26 O          24.0424   73.3836   -3.2030 O.3     1  UNL1       -0.4371
     27 O          24.2668   70.7755   -3.0462 O.2     1  UNL1       -0.5170
     28 O          23.2654   72.1875   -1.0801 O.3     1  UNL1       -0.2858
     29 O          24.5099   71.1731    0.6581 O.3     1  UNL1       -0.3226
     30 O          20.8381   71.8384    2.4897 O.3     1  UNL1       -0.3794
     31 O          20.9695   70.8888   -0.2647 O.3     1  UNL1       -0.3775
     32 O          23.3525   71.0116    3.2798 O.3     1  UNL1       -0.3792
     33 C          21.9461   72.0668    1.6234 C.3     1  UNL1        0.1718
     34 C          22.0851   70.9176    0.6192 C.3     1  UNL1        0.1968
     35 C          23.2188   72.1822    2.4669 C.3     1  UNL1        0.1723
     36 C          23.3713   71.0671   -0.2028 C.3     1  UNL1        0.2706
     37 C          24.4351   72.2848    1.5493 C.3     1  UNL1        0.1830
     38 H          20.7901   72.5873    3.1081 H       1  UNL1        0.2105
     39 H          21.1061   70.1537   -0.8858 H       1  UNL1        0.2106
     40 H          23.6247   70.2708    2.7120 H       1  UNL1        0.2106
     41 O          26.2275   71.0173    2.3768 O.co2   1  UNL1       -0.5466
     42 O          26.2266   73.2471    2.8510 O.co2   1  UNL1       -0.5466
     43 C          25.7115   72.2691    2.3288 C.2     1  UNL1        0.0799
@<TRIPOS>UNITY_ATOM_ATTR
41 1
charge -1
@<TRIPOS>BOND
     1     1     4    1
     2     1    24    1
     3     1     2    1
     4     1     3    2
     5    25    28    1
     6    25    24    1
     7    25    26    1
     8    25    27    2
     9     6    11    1
    10     6    12    1
    11    29    36    1
    12    29    37    1
    13     7     9    1
    14     7    13    1
    15     8    10    1
    16     8    14    1
    17     4     5    1
    18    28    36    1
    19    30    33    1
    20    30    38    1
    21    31    34    1
    22    31    39    1
    23    32    35    1
    24    32    40    1
    25    41    43   ar
    26    15    19    2
    27    42    43   ar
    28    16    22    2
    29    17    12    1
    30    17    19   ar
    31    17    20   ar
    32    18    19   ar
    33    18    22   ar
    34    18    23    1
    35     9    10    1
    36     9    11    1
    37    10    12    1
    38    11     5    1
    39    33    34    1
    40    33    35    1
    41    34    36    1
    42    35    37    1
    43    37    43    1
    44    20    21   ar
    45    21    22   ar
@<TRIPOS>MOLECULE
UDP-glaA
 43 45 0 0 0
SMALL
GASTEIGER

@<TRIPOS>ATOM
      1 P          21.0840   72.6381   -2.2538 P.3     1  UNL1        0.2189
      2 O          19.5246   73.0507   -2.1297 O.3     1  UNL1       -0.4371
      3 O          22.0560   73.7518   -1.9946 O.2     1  UNL1       -0.5170
      4 O          21.1876   71.9391   -3.7085 O.3     1  UNL1       -0.3112
      5 C          21.4117   72.7617   -4.8410 C.3     1  UNL1        0.1811
      6 O          20.6722   70.6800   -5.7864 O.3     1  UNL1       -0.3308
      7 O          21.1067   71.9569   -8.4645 O.3     1  UNL1       -0.3794
      8 O          18.4052   72.1469   -8.1454 O.3     1  UNL1       -0.3779
      9 C          20.6315   72.5411   -7.2517 C.3     1  UNL1        0.1713
     10 C          19.2063   72.1065   -6.9826 C.3     1  UNL1        0.1895
     11 C          21.3846   71.8985   -6.0943 C.3     1  UNL1        0.1764
     12 C          19.4007   70.6948   -6.4561 C.3     1  UNL1        0.2383
     13 H          22.0331   72.2311   -8.5747 H       1  UNL1        0.2105
     14 H          18.4208   73.0601   -8.4801 H       1  UNL1        0.2106
     15 O          16.8112   69.8422   -7.1929 O.2     1  UNL1       -0.2464
     16 O          15.5574   69.2491   -2.7981 O.2     1  UNL1       -0.2670
     17 N          18.3780   70.3111   -5.5254 N.ar    1  UNL1       -0.2551
     18 N          16.1884   69.5479   -5.0040 N.ar    1  UNL1       -0.2743
     19 C          17.1104   69.8990   -5.9988 C.ar    1  UNL1        0.3323
     20 C          18.6356   70.3455   -4.1594 C.ar    1  UNL1        0.0869
     21 C          17.7461   70.0071   -3.2234 C.ar    1  UNL1        0.0795
     22 C          16.3982   69.5663   -3.6338 C.ar    1  UNL1        0.2626
     23 H          15.2701   69.2491   -5.3211 H       1  UNL1        0.1734
     24 O          21.2092   71.3852   -1.2391 O.3     1  UNL1       -0.2703
     25 P          22.0399   71.2140    0.1368 P.3     1  UNL1        0.2208
     26 O          23.5750   71.1258   -0.3650 O.3     1  UNL1       -0.4371
     27 O          21.5969   70.0554    0.9837 O.2     1  UNL1       -0.5170
     28 O          21.9293   72.6510    0.8627 O.3     1  UNL1       -0.2858
     29 O          23.5700   73.8683    2.0568 O.3     1  UNL1       -0.3226
     30 O          20.0703   74.9817    4.0041 O.3     1  UNL1       -0.3794
     31 O          20.4912   72.2162    3.1790 O.3     1  UNL1       -0.3775
     32 O          22.7213   75.7566    4.0449 O.3     1  UNL1       -0.3792
     33 C          20.9214   74.5950    2.9287 C.3     1  UNL1        0.1718
     34 C          21.5143   73.2062    3.1892 C.3     1  UNL1        0.1968
     35 C          22.0444   75.6266    2.7904 C.3     1  UNL1        0.1723
     36 C          22.5618   72.8545    2.1255 C.3     1  UNL1        0.2706
     37 C          23.0462   75.1566    1.7379 C.3     1  UNL1        0.1830
     38 H          19.7204   75.8652    3.7982 H       1  UNL1        0.2105
     39 H          20.9142   71.3556    3.3382 H       1  UNL1        0.2106
     40 H          23.2702   74.9662    4.1831 H       1  UNL1        0.2106
     41 O          23.8588   77.3515    1.8985 O.co2   1  UNL1       -0.5466
     42 O          25.3736   75.7160    1.4214 O.co2   1  UNL1       -0.5466
     43 C          24.2282   76.0697    1.6613 C.2     1  UNL1        0.0799
@<TRIPOS>UNITY_ATOM_ATTR
41 1
charge -1
@<TRIPOS>BOND
     1     1     4    1
     2     1    24    1
     3     1     2    1
     4     1     3    2
     5    25    28    1
     6    25    24    1
     7    25    26    1
     8    25    27    2
     9     6    11    1
    10     6    12    1
    11    29    36    1
    12    29    37    1
    13     7     9    1
    14     7    13    1
    15     8    10    1
    16     8    14    1
    17     4     5    1
    18    28    36    1
    19    30    33    1
    20    30    38    1
    21    31    34    1
    22    31    39    1
    23    32    35    1
    24    32    40    1
    25    41    43   ar
    26    15    19    2
    27    42    43   ar
    28    16    22    2
    29    17    12    1
    30    17    19   ar
    31    17    20   ar
    32    18    19   ar
    33    18    22   ar
    34    18    23    1
    35     9    10    1
    36     9    11    1
    37    10    12    1
    38    11     5    1
    39    33    34    1
    40    33    35    1
    41    34    36    1
    42    35    37    1
    43    37    43    1
    44    20    21   ar
    45    21    22   ar
@<TRIPOS>MOLECULE
UDP-glaA
 43 45 0 0 0
SMALL
GASTEIGER

@<TRIPOS>ATOM
      1 P          22.7024   71.4823   -2.7040 P.3     1  UNL1        0.2189
      2 O          22.7105   73.0676   -2.3815 O.3     1  UNL1       -0.4371
      3 O          24.0427   70.8985   -3.0429 O.2     1  UNL1       -0.5170
      4 O          21.5587   71.3207   -3.8360 O.3     1  UNL1       -0.3112
      5 C          20.6532   70.2350   -3.7339 C.3     1  UNL1        0.1811
      6 O          18.8413   71.4846   -4.6982 O.3     1  UNL1       -0.3308
      7 O          17.1140   70.2609   -2.5745 O.3     1  UNL1       -0.3794
      8 O          16.5217   68.7514   -4.7668 O.3     1  UNL1       -0.3779
      9 C          18.2094   69.6884   -3.2887 C.3     1  UNL1        0.1713
     10 C          17.7960   69.3581   -4.7074 C.3     1  UNL1        0.1895
     11 C          19.2501   70.7790   -3.5057 C.3     1  UNL1        0.1764
     12 C          17.8236   70.7247   -5.3706 C.3     1  UNL1        0.2383
     13 H          17.4360   70.4914   -1.6863 H       1  UNL1        0.2105
     14 H          16.5581   67.9411   -4.2299 H       1  UNL1        0.2106
     15 O          15.9272   70.3025   -7.4202 O.2     1  UNL1       -0.2464
     16 O          19.1642   70.4531  -10.6971 O.2     1  UNL1       -0.2670
     17 N          18.1428   70.6498   -6.7676 N.ar    1  UNL1       -0.2551
     18 N          17.5404   70.3773   -9.0505 N.ar    1  UNL1       -0.2743
     19 C          17.1162   70.4338   -7.7164 C.ar    1  UNL1        0.3323
     20 C          19.4616   70.7896   -7.1858 C.ar    1  UNL1        0.0869
     21 C          19.8499   70.7337   -8.4616 C.ar    1  UNL1        0.0795
     22 C          18.8398   70.5102   -9.5149 C.ar    1  UNL1        0.2626
     23 H          16.8194   70.2221   -9.7500 H       1  UNL1        0.1734
     24 O          22.0047   70.8488   -1.3898 O.3     1  UNL1       -0.2703
     25 P          22.3128   71.0640    0.1822 P.3     1  UNL1        0.2208
     26 O          23.9112   71.3087    0.2170 O.3     1  UNL1       -0.4371
     27 O          21.8379   69.9432    1.0620 O.2     1  UNL1       -0.5170
     28 O          21.6716   72.5031    0.5313 O.3     1  UNL1       -0.2858
     29 O          21.1636   72.6383    2.8385 O.3     1  UNL1       -0.3226
     30 O          19.6815   76.2486    1.4071 O.3     1  UNL1       -0.3794
     31 O          19.3155   73.7885   -0.1161 O.3     1  UNL1       -0.3775
     32 O          20.0896   75.0878    3.8802 O.3     1  UNL1       -0.3792
     33 C          20.5421   75.1174    1.5076 C.3     1  UNL1        0.1718
     34 C          19.7622   73.8267    1.2352 C.3     1  UNL1        0.1968
     35 C          21.1458   75.0778    2.9141 C.3     1  UNL1        0.1723
     36 C          20.6360   72.5962    1.5085 C.3     1  UNL1        0.2706
     37 C          21.9585   73.7966    3.0879 C.3     1  UNL1        0.1830
     38 H          20.2155   77.0406    1.5890 H       1  UNL1        0.2105
     39 H          18.8370   72.9521   -0.2434 H       1  UNL1        0.2106
     40 H          19.6650   74.2132    3.8828 H       1  UNL1        0.2106
     41 O          22.7837   74.8617    5.0084 O.co2   1  UNL1       -0.5466
     42 O          22.5640   72.5942    5.0922 O.co2   1  UNL1       -0.5466
     43 C          22.4602   73.6527    4.4895 C.2     1  UNL1        0.0799
@<TRIPOS>UNITY_ATOM_ATTR
41 1
charge -1
@<TRIPOS>BOND
     1     1     4    1
     2     1    24    1
     3     1     2    1
     4     1     3    2
     5    25    28    1
     6    25    24    1
     7    25    26    1
     8    25    27    2
     9     6    11    1
    10     6    12    1
    11    29    36    1
    12    29    37    1
    13     7     9    1
    14     7    13    1
    15     8    10    1
    16     8    14    1
    17     4     5    1
    18    28    36    1
    19    30    33    1
    20    30    38    1
    21    31    34    1
    22    31    39    1
    23    32    35    1
    24    32    40    1
    25    41    43   ar
    26    15    19    2
    27    42    43   ar
    28    16    22    2
    29    17    12    1
    30    17    19   ar
    31    17    20   ar
    32    18    19   ar
    33    18    22   ar
    34    18    23    1
    35     9    10    1
    36     9    11    1
    37    10    12    1
    38    11     5    1
    39    33    34    1
    40    33    35    1
    41    34    36    1
    42    35    37    1
    43    37    43    1
    44    20    21   ar
    45    21    22   ar
@<TRIPOS>MOLECULE
UDP-glaA
 43 45 0 0 0
SMALL
GASTEIGER

@<TRIPOS>ATOM
      1 P          22.3835   73.1206   -6.3133 P.3     1  UNL1        0.2189
      2 O          21.4904   74.1794   -5.4774 O.3     1  UNL1       -0.4371
      3 O          23.0834   73.6903   -7.5123 O.2     1  UNL1       -0.5170
      4 O          21.3654   71.8991   -6.6082 O.3     1  UNL1       -0.3112
      5 C          20.2004   72.1579   -7.3730 C.3     1  UNL1        0.1811
      6 O          19.1318   70.0619   -6.8840 O.3     1  UNL1       -0.3308
      7 O          18.5384   69.8933   -9.8184 O.3     1  UNL1       -0.3794
      8 O          16.1605   70.7279   -8.7769 O.3     1  UNL1       -0.3779
      9 C          18.5643   71.0384   -8.9665 C.3     1  UNL1        0.1713
     10 C          17.3410   71.0571   -8.0744 C.3     1  UNL1        0.1895
     11 C          19.6906   70.8489   -7.9589 C.3     1  UNL1        0.1764
     12 C          17.7019   70.0227   -7.0219 C.3     1  UNL1        0.2383
     13 H          19.3579   69.9029  -10.3418 H       1  UNL1        0.2105
     14 H          16.0601   71.3722   -9.4988 H       1  UNL1        0.2106
     15 O          16.3394   68.1167   -5.4450 O.2     1  UNL1       -0.2464
     16 O          15.4374   71.2143   -2.1542 O.2     1  UNL1       -0.2670
     17 N          17.1019   70.3034   -5.7489 N.ar    1  UNL1       -0.2551
     18 N          15.8907   69.6606   -3.8076 N.ar    1  UNL1       -0.2743
     19 C          16.4400   69.2754   -5.0377 C.ar    1  UNL1        0.3323
     20 C          17.1724   71.5863   -5.2173 C.ar    1  UNL1        0.0869
     21 C          16.6439   71.9376   -4.0429 C.ar    1  UNL1        0.0795
     22 C          15.9348   70.9235   -3.2377 C.ar    1  UNL1        0.2626
     23 H          15.4095   68.9379   -3.2791 H       1  UNL1        0.1734
     24 O          23.3686   72.5082   -5.1864 O.3     1  UNL1       -0.2703
     25 P          23.1531   72.2795   -3.6009 P.3     1  UNL1        0.2208
     26 O          24.0750   70.9889   -3.2835 O.3     1  UNL1       -0.4371
     27 O          21.7163   72.1313   -3.1895 O.2     1  UNL1       -0.5170
     28 O          23.9230   73.5132   -2.9014 O.3     1  UNL1       -0.2858
     29 O          22.9425   75.1925   -1.5530 O.3     1  UNL1       -0.3226
     30 O          26.2644   77.1510   -3.1051 O.3     1  UNL1       -0.3794
     31 O          24.6634   75.3877   -4.7885 O.3     1  UNL1       -0.3775
     32 O          24.3410   77.6730   -1.1925 O.3     1  UNL1       -0.3792
     33 C          25.4765   76.0748   -2.6037 C.3     1  UNL1        0.1718
     34 C          24.2569   75.8416   -3.5018 C.3     1  UNL1        0.1968
     35 C          25.0224   76.4143   -1.1814 C.3     1  UNL1        0.1723
     36 C          23.3146   74.8038   -2.8794 C.3     1  UNL1        0.2706
     37 C          24.0609   75.3394   -0.6793 C.3     1  UNL1        0.1830
     38 H          27.0217   77.2642   -2.5059 H       1  UNL1        0.2105
     39 H          23.8599   75.2451   -5.3166 H       1  UNL1        0.2106
     40 H          23.4652   77.5465   -1.5952 H       1  UNL1        0.2106
     41 O          22.5108   76.6228    0.5265 O.co2   1  UNL1       -0.5466
     42 O          23.8508   75.2193    1.7230 O.co2   1  UNL1       -0.5466
     43 C          23.4905   75.6960    0.6566 C.2     1  UNL1        0.0799
@<TRIPOS>UNITY_ATOM_ATTR
41 1
charge -1
@<TRIPOS>BOND
     1     1     4    1
     2     1    24    1
     3     1     2    1
     4     1     3    2
     5    25    28    1
     6    25    24    1
     7    25    26    1
     8    25    27    2
     9     6    11    1
    10     6    12    1
    11    29    36    1
    12    29    37    1
    13     7     9    1
    14     7    13    1
    15     8    10    1
    16     8    14    1
    17     4     5    1
    18    28    36    1
    19    30    33    1
    20    30    38    1
    21    31    34    1
    22    31    39    1
    23    32    35    1
    24    32    40    1
    25    41    43   ar
    26    15    19    2
    27    42    43   ar
    28    16    22    2
    29    17    12    1
    30    17    19   ar
    31    17    20   ar
    32    18    19   ar
    33    18    22   ar
    34    18    23    1
    35     9    10    1
    36     9    11    1
    37    10    12    1
    38    11     5    1
    39    33    34    1
    40    33    35    1
    41    34    36    1
    42    35    37    1
    43    37    43    1
    44    20    21   ar
    45    21    22   ar
@<TRIPOS>MOLECULE
UDP-glaA
 43 45 0 0 0
SMALL
GASTEIGER

@<TRIPOS>ATOM
      1 P          21.9082   72.4616   -5.7817 P.3     1  UNL1        0.2189
      2 O          21.2763   73.8872   -5.3508 O.3     1  UNL1       -0.4371
      3 O          23.0969   72.5459   -6.6939 O.2     1  UNL1       -0.5170
      4 O          20.6430   71.6305   -6.3508 O.3     1  UNL1       -0.3112
      5 C          20.1151   71.9836   -7.6181 C.3     1  UNL1        0.1811
      6 O          18.9124   69.9501   -7.1791 O.3     1  UNL1       -0.3308
      7 O          18.1170   70.0167  -10.0694 O.3     1  UNL1       -0.3794
      8 O          15.8886   70.9654   -8.8165 O.3     1  UNL1       -0.3779
      9 C          18.2923   71.0993   -9.1557 C.3     1  UNL1        0.1713
     10 C          17.1355   71.1560   -8.1805 C.3     1  UNL1        0.1895
     11 C          19.4626   70.7585   -8.2426 C.3     1  UNL1        0.1764
     12 C          17.4782   70.0313   -7.2184 C.3     1  UNL1        0.2383
     13 H          18.8986   69.9959  -10.6476 H       1  UNL1        0.2105
     14 H          15.7946   71.6605   -9.4905 H       1  UNL1        0.2106
     15 O          16.2994   68.0677   -5.5660 O.2     1  UNL1       -0.2464
     16 O          15.6295   71.0848   -2.1474 O.2     1  UNL1       -0.2670
     17 N          16.9876   70.2757   -5.8922 N.ar    1  UNL1       -0.2551
     18 N          15.9661   69.5715   -3.8650 N.ar    1  UNL1       -0.2743
     19 C          16.4122   69.2208   -5.1460 C.ar    1  UNL1        0.3323
     20 C          17.0788   71.5500   -5.3433 C.ar    1  UNL1        0.0869
     21 C          16.6493   71.8684   -4.1202 C.ar    1  UNL1        0.0795
     22 C          16.0349   70.8246   -3.2761 C.ar    1  UNL1        0.2626
     23 H          15.5483   68.8290   -3.3107 H       1  UNL1        0.1734
     24 O          22.2001   71.7498   -4.3592 O.3     1  UNL1       -0.2703
     25 P          23.4174   71.9333   -3.3118 P.3     1  UNL1        0.2208
     26 O          24.2009   73.2305   -3.8770 O.3     1  UNL1       -0.4371
     27 O          24.2772   70.7129   -3.1468 O.2     1  UNL1       -0.5170
     28 O          22.7135   72.4417   -1.9517 O.3     1  UNL1       -0.2858
     29 O          22.9012   70.8465   -0.2140 O.3     1  UNL1       -0.3226
     30 O          20.4149   73.7067    1.4940 O.3     1  UNL1       -0.3794
     31 O          20.0755   72.9237   -1.2948 O.3     1  UNL1       -0.3775
     32 O          21.7509   71.4445    2.3469 O.3     1  UNL1       -0.3792
     33 C          21.4610   73.1744    0.6861 C.3     1  UNL1        0.1718
     34 C          20.8898   72.2169   -0.3652 C.3     1  UNL1        0.1968
     35 C          22.4532   72.4328    1.5861 C.3     1  UNL1        0.1723
     36 C          22.0183   71.5090   -1.1253 C.3     1  UNL1        0.2706
     37 C          23.5042   71.7351    0.7254 C.3     1  UNL1        0.1830
     38 H          20.8217   74.3035    2.1450 H       1  UNL1        0.2105
     39 H          19.7452   72.2802   -1.9441 H       1  UNL1        0.2106
     40 H          21.5170   70.7086    1.7562 H       1  UNL1        0.2106
     41 O          25.3893   70.3400    0.7874 O.co2   1  UNL1       -0.5466
     42 O          24.3144   70.7209    2.7613 O.co2   1  UNL1       -0.5466
     43 C          24.4190   70.8916    1.5553 C.2     1  UNL1        0.0799
@<TRIPOS>UNITY_ATOM_ATTR
41 1
charge -1
@<TRIPOS>BOND
     1     1     4    1
     2     1    24    1
     3     1     2    1
     4     1     3    2
     5    25    28    1
     6    25    24    1
     7    25    26    1
     8    25    27    2
     9     6    11    1
    10     6    12    1
    11    29    36    1
    12    29    37    1
    13     7     9    1
    14     7    13    1
    15     8    10    1
    16     8    14    1
    17     4     5    1
    18    28    36    1
    19    30    33    1
    20    30    38    1
    21    31    34    1
    22    31    39    1
    23    32    35    1
    24    32    40    1
    25    41    43   ar
    26    15    19    2
    27    42    43   ar
    28    16    22    2
    29    17    12    1
    30    17    19   ar
    31    17    20   ar
    32    18    19   ar
    33    18    22   ar
    34    18    23    1
    35     9    10    1
    36     9    11    1
    37    10    12    1
    38    11     5    1
    39    33    34    1
    40    33    35    1
    41    34    36    1
    42    35    37    1
    43    37    43    1
    44    20    21   ar
    45    21    22   ar
@<TRIPOS>MOLECULE
UDP-glaA
 43 45 0 0 0
SMALL
GASTEIGER

@<TRIPOS>ATOM
      1 P          19.6679   71.9812   -1.3254 P.3     1  UNL1        0.2189
      2 O          19.6586   70.4160   -1.7346 O.3     1  UNL1       -0.4371
      3 O          18.3113   72.6088   -1.1924 O.2     1  UNL1       -0.5170
      4 O          20.6540   72.6621   -2.4116 O.3     1  UNL1       -0.3112
      5 C          20.2372   72.7151   -3.7653 C.3     1  UNL1        0.1811
      6 O          20.5995   70.9577   -5.3636 O.3     1  UNL1       -0.3308
      7 O          23.1637   72.3568   -6.0408 O.3     1  UNL1       -0.3794
      8 O          21.5129   73.1230   -8.0715 O.3     1  UNL1       -0.3779
      9 C          21.8993   72.9128   -5.6804 C.3     1  UNL1        0.1713
     10 C          20.9238   72.7890   -6.8317 C.3     1  UNL1        0.1895
     11 C          21.2698   72.0067   -4.6305 C.3     1  UNL1        0.1764
     12 C          20.5237   71.3257   -6.7507 C.3     1  UNL1        0.2383
     13 H          23.7420   72.4230   -5.2618 H       1  UNL1        0.2105
     14 H          21.8390   74.0369   -8.0038 H       1  UNL1        0.2106
     15 O          19.8346   70.9358   -9.4615 O.2     1  UNL1       -0.2464
     16 O          15.3654   70.4530   -8.4458 O.2     1  UNL1       -0.2670
     17 N          19.1882   71.0955   -7.2227 N.ar    1  UNL1       -0.2551
     18 N          17.6095   70.6962   -8.9540 N.ar    1  UNL1       -0.2743
     19 C          18.9491   70.9127   -8.6048 C.ar    1  UNL1        0.3323
     20 C          18.1316   71.0529   -6.3199 C.ar    1  UNL1        0.0869
     21 C          16.8599   70.8451   -6.6685 C.ar    1  UNL1        0.0795
     22 C          16.5247   70.6458   -8.0924 C.ar    1  UNL1        0.2626
     23 H          17.4139   70.5628   -9.9424 H       1  UNL1        0.1734
     24 O          20.5528   71.9965    0.0281 O.3     1  UNL1       -0.2703
     25 P          21.9093   71.2085    0.4170 P.3     1  UNL1        0.2208
     26 O          22.6843   71.0835   -0.9972 O.3     1  UNL1       -0.4371
     27 O          21.6820   69.8994    1.1172 O.2     1  UNL1       -0.5170
     28 O          22.7740   72.2760    1.2636 O.3     1  UNL1       -0.2858
     29 O          24.4716   72.4614    2.9017 O.3     1  UNL1       -0.3226
     30 O          21.3428   74.5694    4.6471 O.3     1  UNL1       -0.3794
     31 O          20.8358   72.0772    3.2197 O.3     1  UNL1       -0.3775
     32 O          24.0189   74.1439    5.1828 O.3     1  UNL1       -0.3792
     33 C          22.1832   74.0608    3.6150 C.3     1  UNL1        0.1718
     34 C          22.1336   72.5294    3.5914 C.3     1  UNL1        0.1968
     35 C          23.6174   74.5347    3.8656 C.3     1  UNL1        0.1723
     36 C          23.1619   71.9677    2.6017 C.3     1  UNL1        0.2706
     37 C          24.5571   73.8848    2.8523 C.3     1  UNL1        0.1830
     38 H          21.4072   75.5395    4.6265 H       1  UNL1        0.2105
     39 H          20.8555   71.1054    3.2093 H       1  UNL1        0.2106
     40 H          24.1833   73.1857    5.1840 H       1  UNL1        0.2106
     41 O          26.3470   75.3626    2.5116 O.co2   1  UNL1       -0.5466
     42 O          26.7328   73.5548    3.8459 O.co2   1  UNL1       -0.5466
     43 C          25.9866   74.2175    3.1398 C.2     1  UNL1        0.0799
@<TRIPOS>UNITY_ATOM_ATTR
41 1
charge -1
@<TRIPOS>BOND
     1     1     4    1
     2     1    24    1
     3     1     2    1
     4     1     3    2
     5    25    28    1
     6    25    24    1
     7    25    26    1
     8    25    27    2
     9     6    11    1
    10     6    12    1
    11    29    36    1
    12    29    37    1
    13     7     9    1
    14     7    13    1
    15     8    10    1
    16     8    14    1
    17     4     5    1
    18    28    36    1
    19    30    33    1
    20    30    38    1
    21    31    34    1
    22    31    39    1
    23    32    35    1
    24    32    40    1
    25    41    43   ar
    26    15    19    2
    27    42    43   ar
    28    16    22    2
    29    17    12    1
    30    17    19   ar
    31    17    20   ar
    32    18    19   ar
    33    18    22   ar
    34    18    23    1
    35     9    10    1
    36     9    11    1
    37    10    12    1
    38    11     5    1
    39    33    34    1
    40    33    35    1
    41    34    36    1
    42    35    37    1
    43    37    43    1
    44    20    21   ar
    45    21    22   ar
@<TRIPOS>MOLECULE
UDP-glaA
 43 45 0 0 0
SMALL
GASTEIGER

@<TRIPOS>ATOM
      1 P          22.8874   72.6092   -3.7211 P.3     1  UNL1        0.2189
      2 O          22.3928   71.0883   -3.4771 O.3     1  UNL1       -0.4371
      3 O          24.3177   72.7479   -4.1539 O.2     1  UNL1       -0.5170
      4 O          22.4903   73.3726   -2.3517 O.3     1  UNL1       -0.3112
      5 C          21.4094   74.2892   -2.3762 C.3     1  UNL1        0.1811
      6 O          20.7598   72.5559   -0.8438 O.3     1  UNL1       -0.3308
      7 O          18.5957   74.4243    0.0601 O.3     1  UNL1       -0.3794
      8 O          20.4752   74.6990    2.0166 O.3     1  UNL1       -0.3779
      9 C          19.9299   74.7198   -0.3526 C.3     1  UNL1        0.1713
     10 C          20.9138   74.3227    0.7276 C.3     1  UNL1        0.1895
     11 C          20.2944   73.7655   -1.4822 C.3     1  UNL1        0.1764
     12 C          20.9845   72.8154    0.5517 C.3     1  UNL1        0.2383
     13 H          18.0058   74.6584   -0.6767 H       1  UNL1        0.2105
     14 H          20.3506   75.6637    2.0133 H       1  UNL1        0.2106
     15 O          21.4840   70.0796    1.0431 O.2     1  UNL1       -0.2464
     16 O          25.9246   70.8719    1.9874 O.2     1  UNL1       -0.2670
     17 N          22.2616   72.2790    0.9269 N.ar    1  UNL1       -0.2551
     18 N          23.6948   70.4760    1.5135 N.ar    1  UNL1       -0.2743
     19 C          22.4061   70.8900    1.1515 C.ar    1  UNL1        0.3323
     20 C          23.3547   73.1265    1.0690 C.ar    1  UNL1        0.0869
     21 C          24.5771   72.7164    1.4143 C.ar    1  UNL1        0.0795
     22 C          24.8127   71.2812    1.6678 C.ar    1  UNL1        0.2626
     23 H          23.8220   69.4816    1.6806 H       1  UNL1        0.1734
     24 O          21.8052   73.1767   -4.7802 O.3     1  UNL1       -0.2703
     25 P          21.9224   73.4597   -6.3672 P.3     1  UNL1        0.2208
     26 O          23.0968   72.4521   -6.8381 O.3     1  UNL1       -0.4371
     27 O          22.1626   74.8997   -6.7201 O.2     1  UNL1       -0.5170
     28 O          20.5730   72.8358   -6.9947 O.3     1  UNL1       -0.2858
     29 O          18.5749   72.1136   -5.9528 O.3     1  UNL1       -0.3226
     30 O          18.8929   69.4757   -9.1496 O.3     1  UNL1       -0.3794
     31 O          21.2532   70.2322   -7.6126 O.3     1  UNL1       -0.3775
     32 O          16.9999   70.0835   -7.2320 O.3     1  UNL1       -0.3792
     33 C          19.0097   70.6962   -8.4237 C.3     1  UNL1        0.1718
     34 C          19.9176   70.5077   -7.2037 C.3     1  UNL1        0.1968
     35 C          17.6149   71.1410   -7.9751 C.3     1  UNL1        0.1723
     36 C          19.9125   71.7637   -6.3235 C.3     1  UNL1        0.2706
     37 C          17.7326   72.3696   -7.0757 C.3     1  UNL1        0.1830
     38 H          18.3091   69.6410   -9.9095 H       1  UNL1        0.2105
     39 H          21.7908   70.1304   -6.8092 H       1  UNL1        0.2106
     40 H          17.4218   70.0344   -6.3576 H       1  UNL1        0.2106
     41 O          15.4252   72.6017   -7.4304 O.co2   1  UNL1       -0.5466
     42 O          16.2212   73.1688   -5.3708 O.co2   1  UNL1       -0.5466
     43 C          16.4054   72.7619   -6.5088 C.2     1  UNL1        0.0799
@<TRIPOS>UNITY_ATOM_ATTR
41 1
charge -1
@<TRIPOS>BOND
     1     1     4    1
     2     1    24    1
     3     1     2    1
     4     1     3    2
     5    25    28    1
     6    25    24    1
     7    25    26    1
     8    25    27    2
     9     6    11    1
    10     6    12    1
    11    29    36    1
    12    29    37    1
    13     7     9    1
    14     7    13    1
    15     8    10    1
    16     8    14    1
    17     4     5    1
    18    28    36    1
    19    30    33    1
    20    30    38    1
    21    31    34    1
    22    31    39    1
    23    32    35    1
    24    32    40    1
    25    41    43   ar
    26    15    19    2
    27    42    43   ar
    28    16    22    2
    29    17    12    1
    30    17    19   ar
    31    17    20   ar
    32    18    19   ar
    33    18    22   ar
    34    18    23    1
    35     9    10    1
    36     9    11    1
    37    10    12    1
    38    11     5    1
    39    33    34    1
    40    33    35    1
    41    34    36    1
    42    35    37    1
    43    37    43    1
    44    20    21   ar
    45    21    22   ar
@<TRIPOS>MOLECULE
UDP-glaA
 43 45 0 0 0
SMALL
GASTEIGER

@<TRIPOS>ATOM
      1 P          21.8274   72.3818   -5.6337 P.3     1  UNL1        0.2189
      2 O          21.1713   73.8412   -5.3947 O.3     1  UNL1       -0.4371
      3 O          23.1136   72.3850   -6.4068 O.2     1  UNL1       -0.5170
      4 O          20.6234   71.5137   -6.2759 O.3     1  UNL1       -0.3112
      5 C          20.1031   71.9047   -7.5351 C.3     1  UNL1        0.1811
      6 O          18.8287   69.9061   -7.1408 O.3     1  UNL1       -0.3308
      7 O          18.0915   70.0272  -10.0448 O.3     1  UNL1       -0.3794
      8 O          15.8704   71.0334   -8.8241 O.3     1  UNL1       -0.3779
      9 C          18.2832   71.0945   -9.1163 C.3     1  UNL1        0.1713
     10 C          17.1102   71.1779   -8.1626 C.3     1  UNL1        0.1895
     11 C          19.4244   70.7074   -8.1849 C.3     1  UNL1        0.1764
     12 C          17.3987   70.0331   -7.2063 C.3     1  UNL1        0.2383
     13 H          18.8830   69.9876  -10.6083 H       1  UNL1        0.2105
     14 H          15.8113   71.7379   -9.4922 H       1  UNL1        0.2106
     15 O          16.3859   68.0343   -5.4875 O.2     1  UNL1       -0.2464
     16 O          15.4735   71.0958   -2.1658 O.2     1  UNL1       -0.2670
     17 N          16.8907   70.2795   -5.8871 N.ar    1  UNL1       -0.2551
     18 N          15.9317   69.5602   -3.8348 N.ar    1  UNL1       -0.2743
     19 C          16.4041   69.2058   -5.1053 C.ar    1  UNL1        0.3323
     20 C          16.8776   71.5742   -5.3799 C.ar    1  UNL1        0.0869
     21 C          16.4244   71.8958   -4.1663 C.ar    1  UNL1        0.0795
     22 C          15.8981   70.8332   -3.2869 C.ar    1  UNL1        0.2626
     23 H          15.5765   68.8044   -3.2554 H       1  UNL1        0.1734
     24 O          21.9442   71.7871   -4.1344 O.3     1  UNL1       -0.2703
     25 P          23.1066   71.9383   -3.0214 P.3     1  UNL1        0.2208
     26 O          23.6433   73.4472   -3.2480 O.3     1  UNL1       -0.4371
     27 O          24.1727   70.8831   -3.0970 O.2     1  UNL1       -0.5170
     28 O          22.3201   71.9917   -1.6134 O.3     1  UNL1       -0.2858
     29 O          23.9570   72.4013    0.0455 O.3     1  UNL1       -0.3226
     30 O          20.4545   72.3074    2.2823 O.3     1  UNL1       -0.3794
     31 O          20.8851   70.3951    0.1228 O.3     1  UNL1       -0.3775
     32 O          23.1027   72.9532    2.7296 O.3     1  UNL1       -0.3792
     33 C          21.3063   72.5493    1.1660 C.3     1  UNL1        0.1718
     34 C          21.9045   71.2342    0.6552 C.3     1  UNL1        0.1968
     35 C          22.4255   73.5024    1.5944 C.3     1  UNL1        0.1723
     36 C          22.9526   71.5004   -0.4325 C.3     1  UNL1        0.2706
     37 C          23.4283   73.6620    0.4538 C.3     1  UNL1        0.1830
     38 H          20.1012   73.1654    2.5731 H       1  UNL1        0.2105
     39 H          21.3112   69.5816   -0.1956 H       1  UNL1        0.2106
     40 H          23.6546   72.2108    2.4307 H       1  UNL1        0.2106
     41 O          25.4432   73.7553    1.6519 O.co2   1  UNL1       -0.5466
     42 O          24.7986   75.6474    0.5558 O.co2   1  UNL1       -0.5466
     43 C          24.6070   74.4822    0.8722 C.2     1  UNL1        0.0799
@<TRIPOS>UNITY_ATOM_ATTR
41 1
charge -1
@<TRIPOS>BOND
     1     1     4    1
     2     1    24    1
     3     1     2    1
     4     1     3    2
     5    25    28    1
     6    25    24    1
     7    25    26    1
     8    25    27    2
     9     6    11    1
    10     6    12    1
    11    29    36    1
    12    29    37    1
    13     7     9    1
    14     7    13    1
    15     8    10    1
    16     8    14    1
    17     4     5    1
    18    28    36    1
    19    30    33    1
    20    30    38    1
    21    31    34    1
    22    31    39    1
    23    32    35    1
    24    32    40    1
    25    41    43   ar
    26    15    19    2
    27    42    43   ar
    28    16    22    2
    29    17    12    1
    30    17    19   ar
    31    17    20   ar
    32    18    19   ar
    33    18    22   ar
    34    18    23    1
    35     9    10    1
    36     9    11    1
    37    10    12    1
    38    11     5    1
    39    33    34    1
    40    33    35    1
    41    34    36    1
    42    35    37    1
    43    37    43    1
    44    20    21   ar
    45    21    22   ar
@<TRIPOS>MOLECULE
UDP-glaA
 43 45 0 0 0
SMALL
GASTEIGER

@<TRIPOS>ATOM
      1 P          21.8644   75.0552   -4.6301 P.3     1  UNL1        0.2189
      2 O          20.8169   76.2821   -4.5075 O.3     1  UNL1       -0.4371
      3 O          22.6666   75.0322   -5.8982 O.2     1  UNL1       -0.5170
      4 O          20.9629   73.7432   -4.3448 O.3     1  UNL1       -0.3112
      5 C          19.5587   73.8359   -4.5149 C.3     1  UNL1        0.1811
      6 O          18.1225   71.9487   -4.9019 O.3     1  UNL1       -0.3308
      7 O          19.2596   70.8023   -2.3753 O.3     1  UNL1       -0.3794
      8 O          20.6366   69.4618   -4.3099 O.3     1  UNL1       -0.3779
      9 C          19.9022   71.5852   -3.3811 C.3     1  UNL1        0.1713
     10 C          20.1469   70.7501   -4.6202 C.3     1  UNL1        0.1895
     11 C          18.9010   72.6166   -3.8846 C.3     1  UNL1        0.1764
     12 C          18.7666   70.7132   -5.2538 C.3     1  UNL1        0.2383
     13 H          19.0883   71.3876   -1.6178 H       1  UNL1        0.2105
     14 H          21.4645   69.5754   -3.8121 H       1  UNL1        0.2106
     15 O          16.7074   69.6302   -6.8544 O.2     1  UNL1       -0.2464
     16 O          19.0921   70.3513  -10.7315 O.2     1  UNL1       -0.2670
     17 N          18.8225   70.6062   -6.6837 N.ar    1  UNL1       -0.2551
     18 N          17.8965   69.9895   -8.7839 N.ar    1  UNL1       -0.2743
     19 C          17.7348   70.0457   -7.3933 C.ar    1  UNL1        0.3323
     20 C          19.9466   71.0538   -7.3689 C.ar    1  UNL1        0.0869
     21 C          20.0854   70.9937   -8.6951 C.ar    1  UNL1        0.0795
     22 C          18.9955   70.4215   -9.5101 C.ar    1  UNL1        0.2626
     23 H          17.1272   69.5898   -9.3146 H       1  UNL1        0.1734
     24 O          22.7432   75.1927   -3.2796 O.3     1  UNL1       -0.2703
     25 P          24.0614   74.3977   -2.7868 P.3     1  UNL1        0.2208
     26 O          25.1263   75.5824   -2.5068 O.3     1  UNL1       -0.4371
     27 O          24.5414   73.3466   -3.7464 O.2     1  UNL1       -0.5170
     28 O          23.6781   73.8384   -1.3225 O.3     1  UNL1       -0.2858
     29 O          23.6983   71.6158   -0.5106 O.3     1  UNL1       -0.3226
     30 O          20.5879   73.3098    1.6655 O.3     1  UNL1       -0.3794
     31 O          20.9231   73.9259   -1.1654 O.3     1  UNL1       -0.3775
     32 O          21.9852   70.9271    1.6870 O.3     1  UNL1       -0.3792
     33 C          21.8336   73.2313    0.9782 C.3     1  UNL1        0.1718
     34 C          21.6096   72.8742   -0.4951 C.3     1  UNL1        0.1968
     35 C          22.7032   72.1647    1.6494 C.3     1  UNL1        0.1723
     36 C          22.9468   72.6191   -1.2016 C.3     1  UNL1        0.2706
     37 C          23.9845   71.9651    0.8428 C.3     1  UNL1        0.1830
     38 H          20.7778   73.5350    2.5921 H       1  UNL1        0.2105
     39 H          20.8128   73.6595   -2.0937 H       1  UNL1        0.2106
     40 H          21.9677   70.5527    0.7899 H       1  UNL1        0.2106
     41 O          24.4821   70.5964    2.6820 O.co2   1  UNL1       -0.5466
     42 O          25.6514   70.2203    0.7616 O.co2   1  UNL1       -0.5466
     43 C          24.8055   70.8407    1.3892 C.2     1  UNL1        0.0799
@<TRIPOS>UNITY_ATOM_ATTR
41 1
charge -1
@<TRIPOS>BOND
     1     1     4    1
     2     1    24    1
     3     1     2    1
     4     1     3    2
     5    25    28    1
     6    25    24    1
     7    25    26    1
     8    25    27    2
     9     6    11    1
    10     6    12    1
    11    29    36    1
    12    29    37    1
    13     7     9    1
    14     7    13    1
    15     8    10    1
    16     8    14    1
    17     4     5    1
    18    28    36    1
    19    30    33    1
    20    30    38    1
    21    31    34    1
    22    31    39    1
    23    32    35    1
    24    32    40    1
    25    41    43   ar
    26    15    19    2
    27    42    43   ar
    28    16    22    2
    29    17    12    1
    30    17    19   ar
    31    17    20   ar
    32    18    19   ar
    33    18    22   ar
    34    18    23    1
    35     9    10    1
    36     9    11    1
    37    10    12    1
    38    11     5    1
    39    33    34    1
    40    33    35    1
    41    34    36    1
    42    35    37    1
    43    37    43    1
    44    20    21   ar
    45    21    22   ar
@<TRIPOS>MOLECULE
UDP-glaA
 43 45 0 0 0
SMALL
GASTEIGER

@<TRIPOS>ATOM
      1 P          22.2904   72.9819   -6.7093 P.3     1  UNL1        0.2189
      2 O          21.3866   74.1039   -5.9733 O.3     1  UNL1       -0.4371
      3 O          23.0866   73.4788   -7.8803 O.2     1  UNL1       -0.5170
      4 O          21.2475   71.7868   -7.0248 O.3     1  UNL1       -0.3112
      5 C          20.0180   72.1086   -7.6525 C.3     1  UNL1        0.1811
      6 O          18.9204   70.0226   -7.1857 O.3     1  UNL1       -0.3308
      7 O          18.1131   70.0158  -10.0735 O.3     1  UNL1       -0.3794
      8 O          15.8440   70.8660   -8.8229 O.3     1  UNL1       -0.3779
      9 C          18.2368   71.1164   -9.1729 C.3     1  UNL1        0.1713
     10 C          17.0818   71.1262   -8.1939 C.3     1  UNL1        0.1895
     11 C          19.4257   70.8452   -8.2605 C.3     1  UNL1        0.1764
     12 C          17.4837   70.0313   -7.2204 C.3     1  UNL1        0.2383
     13 H          18.8928   70.0276  -10.6544 H       1  UNL1        0.2105
     14 H          15.7130   71.5477   -9.5044 H       1  UNL1        0.2106
     15 O          16.3145   68.0512   -5.5810 O.2     1  UNL1       -0.2464
     16 O          15.6062   71.0483   -2.1525 O.2     1  UNL1       -0.2670
     17 N          16.9858   70.2662   -5.8952 N.ar    1  UNL1       -0.2551
     18 N          15.9621   69.5451   -3.8751 N.ar    1  UNL1       -0.2743
     19 C          16.4161   69.2034   -5.1558 C.ar    1  UNL1        0.3323
     20 C          17.0644   71.5388   -5.3406 C.ar    1  UNL1        0.0869
     21 C          16.6275   71.8485   -4.1179 C.ar    1  UNL1        0.0795
     22 C          16.0183   70.7962   -3.2806 C.ar    1  UNL1        0.2626
     23 H          15.5482   68.7968   -3.3255 H       1  UNL1        0.1734
     24 O          23.1774   72.3797   -5.4986 O.3     1  UNL1       -0.2703
     25 P          22.8805   72.2837   -3.9127 P.3     1  UNL1        0.2208
     26 O          24.0946   71.3674   -3.3627 O.3     1  UNL1       -0.4371
     27 O          21.5114   71.7683   -3.5724 O.2     1  UNL1       -0.5170
     28 O          23.1959   73.7619   -3.3474 O.3     1  UNL1       -0.2858
     29 O          24.8010   74.8894   -4.6709 O.3     1  UNL1       -0.3226
     30 O          24.2963   77.5155   -1.4884 O.3     1  UNL1       -0.3794
     31 O          24.4149   74.6377   -1.0301 O.3     1  UNL1       -0.3775
     32 O          25.5876   77.5485   -3.9300 O.3     1  UNL1       -0.3792
     33 C          23.9497   76.5408   -2.4683 C.3     1  UNL1        0.1718
     34 C          24.7663   75.2608   -2.2610 C.3     1  UNL1        0.1968
     35 C          24.2244   77.1180   -3.8597 C.3     1  UNL1        0.1723
     36 C          24.5271   74.2720   -3.4088 C.3     1  UNL1        0.2706
     37 C          23.9943   76.0402   -4.9169 C.3     1  UNL1        0.1830
     38 H          23.7584   78.3074   -1.6592 H       1  UNL1        0.2105
     39 H          24.9487   73.8296   -0.9474 H       1  UNL1        0.2106
     40 H          26.1572   76.7627   -3.9868 H       1  UNL1        0.2106
     41 O          25.6803   76.2587   -6.5334 O.co2   1  UNL1       -0.5466
     42 O          23.6190   77.0734   -7.0666 O.co2   1  UNL1       -0.5466
     43 C          24.3754   76.5213   -6.2808 C.2     1  UNL1        0.0799
@<TRIPOS>UNITY_ATOM_ATTR
41 1
charge -1
@<TRIPOS>BOND
     1     1     4    1
     2     1    24    1
     3     1     2    1
     4     1     3    2
     5    25    28    1
     6    25    24    1
     7    25    26    1
     8    25    27    2
     9     6    11    1
    10     6    12    1
    11    29    36    1
    12    29    37    1
    13     7     9    1
    14     7    13    1
    15     8    10    1
    16     8    14    1
    17     4     5    1
    18    28    36    1
    19    30    33    1
    20    30    38    1
    21    31    34    1
    22    31    39    1
    23    32    35    1
    24    32    40    1
    25    41    43   ar
    26    15    19    2
    27    42    43   ar
    28    16    22    2
    29    17    12    1
    30    17    19   ar
    31    17    20   ar
    32    18    19   ar
    33    18    22   ar
    34    18    23    1
    35     9    10    1
    36     9    11    1
    37    10    12    1
    38    11     5    1
    39    33    34    1
    40    33    35    1
    41    34    36    1
    42    35    37    1
    43    37    43    1
    44    20    21   ar
    45    21    22   ar
@<TRIPOS>MOLECULE
UDP-glaA
 43 45 0 0 0
SMALL
GASTEIGER

@<TRIPOS>ATOM
      1 P          20.7417   73.6685   -3.9600 P.3     1  UNL1        0.2189
      2 O          21.8115   74.8493   -4.2406 O.3     1  UNL1       -0.4371
      3 O          19.3047   74.1009   -3.9694 O.2     1  UNL1       -0.5170
      4 O          21.2624   72.9889   -2.5879 O.3     1  UNL1       -0.3112
      5 C          20.4206   72.0557   -1.9322 C.3     1  UNL1        0.1811
      6 O          20.4236   72.1165    0.4700 O.3     1  UNL1       -0.3308
      7 O          19.1101   74.8002    0.2174 O.3     1  UNL1       -0.3794
      8 O          21.7055   75.4542    0.7391 O.3     1  UNL1       -0.3779
      9 C          20.1123   74.2040   -0.6060 C.3     1  UNL1        0.1713
     10 C          21.4509   74.2197    0.1014 C.3     1  UNL1        0.1895
     11 C          19.8181   72.7125   -0.6985 C.3     1  UNL1        0.1764
     12 C          21.3007   73.0733    1.0869 C.3     1  UNL1        0.2383
     13 H          18.2653   74.7323   -0.2592 H       1  UNL1        0.2105
     14 H          21.6774   76.1472    0.0572 H       1  UNL1        0.2106
     15 O          21.6934   70.2774    1.1502 O.2     1  UNL1       -0.2464
     16 O          26.1481   70.7437    2.2353 O.2     1  UNL1       -0.2670
     17 N          22.5525   72.4369    1.3824 N.ar    1  UNL1       -0.2551
     18 N          23.9113   70.5114    1.6910 N.ar    1  UNL1       -0.2743
     19 C          22.6432   71.0253    1.3893 C.ar    1  UNL1        0.3323
     20 C          23.6741   73.2098    1.6617 C.ar    1  UNL1        0.0869
     21 C          24.8763   72.7048    1.9470 C.ar    1  UNL1        0.0795
     22 C          25.0560   71.2397    1.9758 C.ar    1  UNL1        0.2626
     23 H          23.9999   69.4990    1.7023 H       1  UNL1        0.1734
     24 O          21.1199   72.5636   -5.0787 O.3     1  UNL1       -0.2703
     25 P          20.8797   72.5478   -6.6770 P.3     1  UNL1        0.2208
     26 O          21.6693   71.2206   -7.1579 O.3     1  UNL1       -0.4371
     27 O          21.3025   73.8082   -7.3759 O.2     1  UNL1       -0.5170
     28 O          19.3183   72.1801   -6.8523 O.3     1  UNL1       -0.2858
     29 O          18.3995   70.2060   -5.9257 O.3     1  UNL1       -0.3226
     30 O          15.6047   71.1809   -8.8442 O.3     1  UNL1       -0.3794
     31 O          18.4591   71.4580   -9.3748 O.3     1  UNL1       -0.3775
     32 O          15.7941   69.3563   -6.7791 O.3     1  UNL1       -0.3792
     33 C          16.5847   71.3827   -7.8297 C.3     1  UNL1        0.1718
     34 C          17.9239   70.7680   -8.2504 C.3     1  UNL1        0.1968
     35 C          16.0950   70.7337   -6.5322 C.3     1  UNL1        0.1723
     36 C          18.9348   70.8279   -7.0986 C.3     1  UNL1        0.2706
     37 C          17.1915   70.8148   -5.4723 C.3     1  UNL1        0.1830
     38 H          14.7751   71.5828   -8.5348 H       1  UNL1        0.2105
     39 H          19.3083   71.0410   -9.5980 H       1  UNL1        0.2106
     40 H          16.6303   68.8698   -6.8748 H       1  UNL1        0.2106
     41 O          16.1882   70.9087   -3.3537 O.co2   1  UNL1       -0.5466
     42 O          17.0128   68.8917   -4.0233 O.co2   1  UNL1       -0.5466
     43 C          16.8059   70.0789   -4.2286 C.2     1  UNL1        0.0799
@<TRIPOS>UNITY_ATOM_ATTR
41 1
charge -1
@<TRIPOS>BOND
     1     1     4    1
     2     1    24    1
     3     1     2    1
     4     1     3    2
     5    25    28    1
     6    25    24    1
     7    25    26    1
     8    25    27    2
     9     6    11    1
    10     6    12    1
    11    29    36    1
    12    29    37    1
    13     7     9    1
    14     7    13    1
    15     8    10    1
    16     8    14    1
    17     4     5    1
    18    28    36    1
    19    30    33    1
    20    30    38    1
    21    31    34    1
    22    31    39    1
    23    32    35    1
    24    32    40    1
    25    41    43   ar
    26    15    19    2
    27    42    43   ar
    28    16    22    2
    29    17    12    1
    30    17    19   ar
    31    17    20   ar
    32    18    19   ar
    33    18    22   ar
    34    18    23    1
    35     9    10    1
    36     9    11    1
    37    10    12    1
    38    11     5    1
    39    33    34    1
    40    33    35    1
    41    34    36    1
    42    35    37    1
    43    37    43    1
    44    20    21   ar
    45    21    22   ar
@<TRIPOS>MOLECULE
UDP-glaA
 43 45 0 0 0
SMALL
GASTEIGER

@<TRIPOS>ATOM
      1 P          22.1221   72.6176   -6.2121 P.3     1  UNL1        0.2189
      2 O          21.5065   74.0555   -5.7989 O.3     1  UNL1       -0.4371
      3 O          23.1978   72.6664   -7.2574 O.2     1  UNL1       -0.5170
      4 O          20.8225   71.7289   -6.5819 O.3     1  UNL1       -0.3112
      5 C          20.0631   72.0825   -7.7253 C.3     1  UNL1        0.1811
      6 O          18.9635   70.0035   -7.2322 O.3     1  UNL1       -0.3308
      7 O          18.0778   70.0078  -10.0970 O.3     1  UNL1       -0.3794
      8 O          15.8498   70.8720   -8.7836 O.3     1  UNL1       -0.3779
      9 C          18.2340   71.1058   -9.1983 C.3     1  UNL1        0.1713
     10 C          17.1062   71.1221   -8.1881 C.3     1  UNL1        0.1895
     11 C          19.4453   70.8245   -8.3190 C.3     1  UNL1        0.1764
     12 C          17.5265   70.0226   -7.2277 C.3     1  UNL1        0.2383
     13 H          18.8415   70.0151  -10.6989 H       1  UNL1        0.2105
     14 H          15.7052   71.5558   -9.4601 H       1  UNL1        0.2106
     15 O          16.2554   68.0858   -5.6126 O.2     1  UNL1       -0.2464
     16 O          15.8021   71.0419   -2.1062 O.2     1  UNL1       -0.2670
     17 N          17.0666   70.2586   -5.8890 N.ar    1  UNL1       -0.2551
     18 N          16.0301   69.5593   -3.8678 N.ar    1  UNL1       -0.2743
     19 C          16.4398   69.2186   -5.1636 C.ar    1  UNL1        0.3323
     20 C          17.2381   71.5100   -5.3077 C.ar    1  UNL1        0.0869
     21 C          16.8424   71.8190   -4.0709 C.ar    1  UNL1        0.0795
     22 C          16.1784   70.7897   -3.2467 C.ar    1  UNL1        0.2626
     23 H          15.5765   68.8272   -3.3279 H       1  UNL1        0.1734
     24 O          22.5906   72.0024   -4.7918 O.3     1  UNL1       -0.2703
     25 P          21.8220   71.9051   -3.3732 P.3     1  UNL1        0.2208
     26 O          22.0948   70.3804   -2.9072 O.3     1  UNL1       -0.4371
     27 O          20.3701   72.2850   -3.4320 O.2     1  UNL1       -0.5170
     28 O          22.7061   72.8043   -2.3665 O.3     1  UNL1       -0.2858
     29 O          21.8681   72.5292   -0.1707 O.3     1  UNL1       -0.3226
     30 O          24.9316   75.2794    0.4044 O.3     1  UNL1       -0.3794
     31 O          23.1688   75.4876   -1.9096 O.3     1  UNL1       -0.3775
     32 O          23.2513   73.7849    2.0084 O.3     1  UNL1       -0.3792
     33 C          24.2337   74.1746   -0.1637 C.3     1  UNL1        0.1718
     34 C          22.9167   74.6410   -0.7931 C.3     1  UNL1        0.1968
     35 C          23.9536   73.1472    0.9365 C.3     1  UNL1        0.1723
     36 C          22.0798   73.4410   -1.2536 C.3     1  UNL1        0.2706
     37 C          23.0834   72.0228    0.3791 C.3     1  UNL1        0.1830
     38 H          25.7553   74.9379    0.7923 H       1  UNL1        0.2105
     39 H          22.3088   75.7490   -2.2797 H       1  UNL1        0.2106
     40 H          22.3349   73.9442    1.7257 H       1  UNL1        0.2106
     41 O          21.6438   70.2908    1.0360 O.co2   1  UNL1       -0.5466
     42 O          23.2014   70.9774    2.5524 O.co2   1  UNL1       -0.5466
     43 C          22.6769   71.0627    1.4514 C.2     1  UNL1        0.0799
@<TRIPOS>UNITY_ATOM_ATTR
41 1
charge -1
@<TRIPOS>BOND
     1     1     4    1
     2     1    24    1
     3     1     2    1
     4     1     3    2
     5    25    28    1
     6    25    24    1
     7    25    26    1
     8    25    27    2
     9     6    11    1
    10     6    12    1
    11    29    36    1
    12    29    37    1
    13     7     9    1
    14     7    13    1
    15     8    10    1
    16     8    14    1
    17     4     5    1
    18    28    36    1
    19    30    33    1
    20    30    38    1
    21    31    34    1
    22    31    39    1
    23    32    35    1
    24    32    40    1
    25    41    43   ar
    26    15    19    2
    27    42    43   ar
    28    16    22    2
    29    17    12    1
    30    17    19   ar
    31    17    20   ar
    32    18    19   ar
    33    18    22   ar
    34    18    23    1
    35     9    10    1
    36     9    11    1
    37    10    12    1
    38    11     5    1
    39    33    34    1
    40    33    35    1
    41    34    36    1
    42    35    37    1
    43    37    43    1
    44    20    21   ar
    45    21    22   ar
@<TRIPOS>MOLECULE
UDP-glaA
 43 45 0 0 0
SMALL
GASTEIGER

@<TRIPOS>ATOM
      1 P          23.4878   72.2155   -3.1371 P.3     1  UNL1        0.2189
      2 O          24.2160   70.7734   -3.0496 O.3     1  UNL1       -0.4371
      3 O          24.4129   73.3808   -3.3327 O.2     1  UNL1       -0.5170
      4 O          22.5635   72.2665   -1.8110 O.3     1  UNL1       -0.3112
      5 C          22.7769   71.2973   -0.7989 C.3     1  UNL1        0.1811
      6 O          22.8319   71.3428    1.6030 O.3     1  UNL1       -0.3308
      7 O          20.7299   73.4737    1.4245 O.3     1  UNL1       -0.3794
      8 O          22.9992   74.9132    1.8868 O.3     1  UNL1       -0.3779
      9 C          21.8442   73.2301    0.5662 C.3     1  UNL1        0.1713
     10 C          23.1295   73.6651    1.2381 C.3     1  UNL1        0.1895
     11 C          22.0345   71.7227    0.4599 C.3     1  UNL1        0.1764
     12 C          23.3791   72.5248    2.2104 C.3     1  UNL1        0.2383
     13 H          19.9361   73.1444    0.9694 H       1  UNL1        0.2105
     14 H          22.7330   75.5653    1.2160 H       1  UNL1        0.2106
     15 O          24.7029   70.0487    1.9072 O.2     1  UNL1       -0.2464
     16 O          28.7430   71.8411    3.2125 O.2     1  UNL1       -0.2670
     17 N          24.7761   72.3160    2.4635 N.ar    1  UNL1       -0.2551
     18 N          26.7137   70.9427    2.5579 N.ar    1  UNL1       -0.2743
     19 C          25.3431   71.0329    2.2815 C.ar    1  UNL1        0.3323
     20 C          25.5698   73.3761    2.8874 C.ar    1  UNL1        0.0869
     21 C          26.8753   73.2741    3.1463 C.ar    1  UNL1        0.0795
     22 C          27.5443   71.9684    2.9821 C.ar    1  UNL1        0.2626
     23 H          27.1426   70.0295    2.4346 H       1  UNL1        0.1734
     24 O          22.4092   72.0053   -4.3236 O.3     1  UNL1       -0.2703
     25 P          22.0199   72.9434   -5.5810 P.3     1  UNL1        0.2208
     26 O          22.9957   72.4120   -6.7565 O.3     1  UNL1       -0.4371
     27 O          22.1250   74.4163   -5.3066 O.2     1  UNL1       -0.5170
     28 O          20.5471   72.4502   -6.0186 O.3     1  UNL1       -0.2858
     29 O          19.4883   70.3823   -5.5690 O.3     1  UNL1       -0.3226
     30 O          17.8029   71.4489   -9.2161 O.3     1  UNL1       -0.3794
     31 O          20.6449   71.8728   -8.7167 O.3     1  UNL1       -0.3775
     32 O          17.3864   69.4936   -7.3099 O.3     1  UNL1       -0.3792
     33 C          18.3641   71.6174   -7.9172 C.3     1  UNL1        0.1718
     34 C          19.8010   71.0859   -7.8828 C.3     1  UNL1        0.1968
     35 C          17.5014   70.8612   -6.9031 C.3     1  UNL1        0.1723
     36 C          20.3530   71.1046   -6.4520 C.3     1  UNL1        0.2706
     37 C          18.1637   70.9107   -5.5280 C.3     1  UNL1        0.1830
     38 H          16.8949   71.7958   -9.1906 H       1  UNL1        0.2105
     39 H          21.5428   71.5056   -8.6555 H       1  UNL1        0.2106
     40 H          18.2329   69.0478   -7.1373 H       1  UNL1        0.2106
     41 O          16.9399   70.8449   -3.5275 O.co2   1  UNL1       -0.5466
     42 O          17.2655   68.8657   -4.6110 O.co2   1  UNL1       -0.5466
     43 C          17.4222   70.0756   -4.5331 C.2     1  UNL1        0.0799
@<TRIPOS>UNITY_ATOM_ATTR
41 1
charge -1
@<TRIPOS>BOND
     1     1     4    1
     2     1    24    1
     3     1     2    1
     4     1     3    2
     5    25    28    1
     6    25    24    1
     7    25    26    1
     8    25    27    2
     9     6    11    1
    10     6    12    1
    11    29    36    1
    12    29    37    1
    13     7     9    1
    14     7    13    1
    15     8    10    1
    16     8    14    1
    17     4     5    1
    18    28    36    1
    19    30    33    1
    20    30    38    1
    21    31    34    1
    22    31    39    1
    23    32    35    1
    24    32    40    1
    25    41    43   ar
    26    15    19    2
    27    42    43   ar
    28    16    22    2
    29    17    12    1
    30    17    19   ar
    31    17    20   ar
    32    18    19   ar
    33    18    22   ar
    34    18    23    1
    35     9    10    1
    36     9    11    1
    37    10    12    1
    38    11     5    1
    39    33    34    1
    40    33    35    1
    41    34    36    1
    42    35    37    1
    43    37    43    1
    44    20    21   ar
    45    21    22   ar
@<TRIPOS>MOLECULE
UDP-glaA
 43 45 0 0 0
SMALL
GASTEIGER

@<TRIPOS>ATOM
      1 P          21.1240   73.4897   -2.8834 P.3     1  UNL1        0.2189
      2 O          22.5005   73.0411   -2.1612 O.3     1  UNL1       -0.4371
      3 O          20.5946   74.8288   -2.4606 O.2     1  UNL1       -0.5170
      4 O          20.1321   72.2347   -2.6454 O.3     1  UNL1       -0.3112
      5 C          19.6722   71.5112   -3.7743 C.3     1  UNL1        0.1811
      6 O          17.7313   71.9214   -5.1302 O.3     1  UNL1       -0.3308
      7 O          16.1880   70.4151   -3.0467 O.3     1  UNL1       -0.3794
      8 O          16.5009   68.5555   -5.0165 O.3     1  UNL1       -0.3779
      9 C          17.5129   70.1899   -3.5281 C.3     1  UNL1        0.1713
     10 C          17.4717   69.5763   -4.9117 C.3     1  UNL1        0.1895
     11 C          18.1508   71.5460   -3.7997 C.3     1  UNL1        0.1764
     12 C          17.1501   70.7797   -5.7814 C.3     1  UNL1        0.2383
     13 H          16.2645   70.8437   -2.1772 H       1  UNL1        0.2105
     14 H          16.7170   67.8769   -4.3540 H       1  UNL1        0.2106
     15 O          15.6134   70.7083   -8.1497 O.2     1  UNL1       -0.2464
     16 O          19.3699   70.3337  -10.7930 O.2     1  UNL1       -0.2670
     17 N          17.7003   70.6646   -7.1017 N.ar    1  UNL1       -0.2551
     18 N          17.4850   70.5213   -9.4643 N.ar    1  UNL1       -0.2743
     19 C          16.8413   70.6368   -8.2252 C.ar    1  UNL1        0.3323
     20 C          19.0775   70.5805   -7.2738 C.ar    1  UNL1        0.0869
     21 C          19.6759   70.4712   -8.4620 C.ar    1  UNL1        0.0795
     22 C          18.8507   70.4342   -9.6856 C.ar    1  UNL1        0.2626
     23 H          16.8871   70.4987  -10.2861 H       1  UNL1        0.1734
     24 O          21.4852   73.3741   -4.4554 O.3     1  UNL1       -0.2703
     25 P          22.8491   72.9290   -5.2000 P.3     1  UNL1        0.2208
     26 O          22.3653   71.7352   -6.1782 O.3     1  UNL1       -0.4371
     27 O          23.9652   72.5530   -4.2680 O.2     1  UNL1       -0.5170
     28 O          23.1928   74.1552   -6.1912 O.3     1  UNL1       -0.2858
     29 O          23.6010   76.4002   -5.5645 O.3     1  UNL1       -0.3226
     30 O          22.1415   76.8275   -9.4331 O.3     1  UNL1       -0.3794
     31 O          20.9395   74.9036   -7.6001 O.3     1  UNL1       -0.3775
     32 O          23.2975   78.4663   -7.5337 O.3     1  UNL1       -0.3792
     33 C          22.8337   76.2359   -8.3371 C.3     1  UNL1        0.1718
     34 C          21.8584   75.9146   -7.1997 C.3     1  UNL1        0.1968
     35 C          23.9083   77.2100   -7.8463 C.3     1  UNL1        0.1723
     36 C          22.6151   75.4381   -5.9536 C.3     1  UNL1        0.2706
     37 C          24.5656   76.6556   -6.5842 C.3     1  UNL1        0.1830
     38 H          22.7966   77.0158  -10.1266 H       1  UNL1        0.2105
     39 H          20.3505   74.7276   -6.8472 H       1  UNL1        0.2106
     40 H          22.8019   78.3705   -6.7028 H       1  UNL1        0.2106
     41 O          25.5733   77.5129   -4.6468 O.co2   1  UNL1       -0.5466
     42 O          26.1987   78.4333   -6.6365 O.co2   1  UNL1       -0.5466
     43 C          25.5319   77.6338   -5.9956 C.2     1  UNL1        0.0799
@<TRIPOS>UNITY_ATOM_ATTR
41 1
charge -1
@<TRIPOS>BOND
     1     1     4    1
     2     1    24    1
     3     1     2    1
     4     1     3    2
     5    25    28    1
     6    25    24    1
     7    25    26    1
     8    25    27    2
     9     6    11    1
    10     6    12    1
    11    29    36    1
    12    29    37    1
    13     7     9    1
    14     7    13    1
    15     8    10    1
    16     8    14    1
    17     4     5    1
    18    28    36    1
    19    30    33    1
    20    30    38    1
    21    31    34    1
    22    31    39    1
    23    32    35    1
    24    32    40    1
    25    41    43   ar
    26    15    19    2
    27    42    43   ar
    28    16    22    2
    29    17    12    1
    30    17    19   ar
    31    17    20   ar
    32    18    19   ar
    33    18    22   ar
    34    18    23    1
    35     9    10    1
    36     9    11    1
    37    10    12    1
    38    11     5    1
    39    33    34    1
    40    33    35    1
    41    34    36    1
    42    35    37    1
    43    37    43    1
    44    20    21   ar
    45    21    22   ar
