@<TRIPOS>MOLECULE
*****
 43 45 0 0 0
SMALL
GASTEIGER

@<TRIPOS>ATOM
      1 P          23.0293   71.5978   -2.5079 P.3     1  UNL1        0.2189
      2 O          23.3362   73.0914   -1.9660 O.co2   1  UNL1       -0.4371
      3 O          24.1901   70.9117   -3.1664 O.2     1  UNL1       -0.5170
      4 O          21.7090   71.7809   -3.4252 O.3     1  UNL1       -0.3112
      5 C          20.8877   70.6521   -3.6610 C.3     1  UNL1        0.1811
      6 O          18.9053   71.6512   -4.5827 O.3     1  UNL1       -0.3308
      7 O          17.4122   70.2829   -2.3715 O.3     1  UNL1       -0.3794
      8 O          16.9308   68.6596   -4.5091 O.3     1  UNL1       -0.3779
      9 C          18.5436   69.8282   -3.1143 C.3     1  UNL1        0.1713
     10 C          18.1235   69.4158   -4.5092 C.3     1  UNL1        0.1895
     11 C          19.4366   71.0296   -3.3925 C.3     1  UNL1        0.1764
     12 C          17.9641   70.7592   -5.2006 C.3     1  UNL1        0.2383
     13 H          16.8268   69.5325   -2.1817 H       1  UNL1        0.2105
     14 H          17.0842   67.8140   -4.0580 H       1  UNL1        0.2106
     15 O          16.0548   70.0928   -7.1721 O.2     1  UNL1       -0.2464
     16 O          19.1434   70.5165  -10.5669 O.2     1  UNL1       -0.2670
     17 N          18.2423   70.6880   -6.6071 N.ar    1  UNL1       -0.2551
     18 N          17.5952   70.3035   -8.8609 N.ar    1  UNL1       -0.2743
     19 C          17.2120   70.3438   -7.5139 C.ar    1  UNL1        0.3323
     20 C          19.5222   70.9587   -7.0756 C.ar    1  UNL1        0.0869
     21 C          19.8722   70.9164   -8.3626 C.ar    1  UNL1        0.0795
     22 C          18.8551   70.5641   -9.3749 C.ar    1  UNL1        0.2626
     23 H          16.8954   70.0642   -9.5109 H       1  UNL1        0.1734
     24 O          22.4587   70.8458   -1.1958 O.3     1  UNL1       -0.2703
     25 P          21.7779   71.4287    0.1497 P.3     1  UNL1        0.2208
     26 O          21.3070   70.0934    0.9343 O.co2   1  UNL1       -0.4371
     27 O          20.6787   72.4213   -0.0965 O.2     1  UNL1       -0.5170
     28 O          23.0117   71.9980    1.0192 O.3     1  UNL1       -0.2858
     29 O          24.7211   71.3692    2.5331 O.3     1  UNL1       -0.3226
     30 O          22.6648   74.2084    4.7191 O.3     1  UNL1       -0.3794
     31 O          21.2181   72.2274    3.1326 O.3     1  UNL1       -0.3775
     32 O          25.2253   74.8692    3.5116 O.3     1  UNL1       -0.3792
     33 C          23.1804   73.5954    3.5374 C.3     1  UNL1        0.1718
     34 C          22.6139   72.1815    3.4054 C.3     1  UNL1        0.1968
     35 C          24.7055   73.5488    3.6556 C.3     1  UNL1        0.1723
     36 C          23.3155   71.4135    2.2844 C.3     1  UNL1        0.2706
     37 C          25.3210   72.6619    2.5772 C.3     1  UNL1        0.1830
     38 H          21.6969   74.2490    4.6666 H       1  UNL1        0.2105
     39 H          20.7667   72.7136    3.8398 H       1  UNL1        0.2106
     40 H          24.8413   75.4440    4.1921 H       1  UNL1        0.2106
     41 O          27.0620   71.0911    2.5232 O.co2   1  UNL1       -0.5466
     42 O          27.5356   73.1386    3.4078 O.co2   1  UNL1       -0.5466
     43 C          26.7496   72.3582    2.8919 C.2     1  UNL1        0.0799
@<TRIPOS>UNITY_ATOM_ATTR
2 1
charge -1
26 1
charge -1
41 1
charge -1
@<TRIPOS>BOND
     1     1     4    1
     2     1    24    1
     3     1     2    1
     4     1     3    2
     5    25    28    1
     6    25    24    1
     7    25    26    1
     8    25    27    2
     9     6    11    1
    10     6    12    1
    11    29    36    1
    12    29    37    1
    13     7     9    1
    14     7    13    1
    15     8    10    1
    16     8    14    1
    17     4     5    1
    18    28    36    1
    19    30    33    1
    20    30    38    1
    21    31    34    1
    22    31    39    1
    23    32    35    1
    24    32    40    1
    25    41    43   ar
    26    15    19    2
    27    42    43   ar
    28    16    22    2
    29    17    12    1
    30    17    19   ar
    31    17    20   ar
    32    18    19   ar
    33    18    22   ar
    34    18    23    1
    35     9    10    1
    36     9    11    1
    37    10    12    1
    38    11     5    1
    39    33    34    1
    40    33    35    1
    41    34    36    1
    42    35    37    1
    43    37    43    1
    44    20    21   ar
    45    21    22   ar
@<TRIPOS>MOLECULE
*****
 43 45 0 0 0
SMALL
GASTEIGER

@<TRIPOS>ATOM
      1 P          21.8728   72.7489   -1.7956 P.3     1  UNL1        0.2189
      2 O          20.3689   72.6195   -1.2121 O.co2   1  UNL1       -0.4371
      3 O          22.4460   74.1354   -1.7681 O.2     1  UNL1       -0.5170
      4 O          21.7848   72.0538   -3.2540 O.3     1  UNL1       -0.3112
      5 C          21.4901   72.8678   -4.3743 C.3     1  UNL1        0.1811
      6 O          20.8550   70.7900   -5.4024 O.3     1  UNL1       -0.3308
      7 O          21.4795   72.1095   -8.0216 O.3     1  UNL1       -0.3794
      8 O          18.7589   72.2601   -7.9123 O.3     1  UNL1       -0.3779
      9 C          20.9032   72.6705   -6.8419 C.3     1  UNL1        0.1713
     10 C          19.4676   72.2137   -6.6916 C.3     1  UNL1        0.1895
     11 C          21.5719   72.0212   -5.6380 C.3     1  UNL1        0.1764
     12 C          19.6403   70.7977   -6.1691 C.3     1  UNL1        0.2383
     13 H          21.0679   72.5091   -8.8044 H       1  UNL1        0.2105
     14 H          18.6753   73.1824   -8.2027 H       1  UNL1        0.2106
     15 O          17.1400   69.8899   -7.1182 O.2     1  UNL1       -0.2464
     16 O          15.5425   69.2533   -2.8419 O.2     1  UNL1       -0.2670
     17 N          18.5531   70.3884   -5.3257 N.ar    1  UNL1       -0.2551
     18 N          16.3464   69.5746   -4.9874 N.ar    1  UNL1       -0.2743
     19 C          17.3385   69.9489   -5.9033 C.ar    1  UNL1        0.3323
     20 C          18.6963   70.4229   -3.9440 C.ar    1  UNL1        0.0869
     21 C          17.7416   70.0629   -3.0838 C.ar    1  UNL1        0.0795
     22 C          16.4417   69.5924   -3.6053 C.ar    1  UNL1        0.2626
     23 H          15.4911   69.2671   -5.3659 H       1  UNL1        0.1734
     24 O          22.6946   71.6631   -0.9246 O.3     1  UNL1       -0.2703
     25 P          22.4238   71.0621    0.5516 P.3     1  UNL1        0.2208
     26 O          23.7843   70.2465    0.8742 O.co2   1  UNL1       -0.4371
     27 O          21.1706   70.2428    0.6625 O.2     1  UNL1       -0.5170
     28 O          22.4750   72.3431    1.5308 O.3     1  UNL1       -0.2858
     29 O          24.0080   72.5995    3.3178 O.3     1  UNL1       -0.3226
     30 O          20.9137   75.0666    4.5040 O.3     1  UNL1       -0.3794
     31 O          20.3550   72.4514    3.3280 O.3     1  UNL1       -0.3775
     32 O          23.3627   76.2096    3.4329 O.3     1  UNL1       -0.3792
     33 C          21.7702   74.4068    3.5717 C.3     1  UNL1        0.1718
     34 C          21.6427   72.8929    3.7423 C.3     1  UNL1        0.1968
     35 C          23.2068   74.8547    3.8505 C.3     1  UNL1        0.1723
     36 C          22.7074   72.1587    2.9261 C.3     1  UNL1        0.2706
     37 C          24.2153   73.9928    3.0964 C.3     1  UNL1        0.1830
     38 H          19.9951   74.7973    4.3460 H       1  UNL1        0.2105
     39 H          19.6745   72.9134    3.8416 H       1  UNL1        0.2106
     40 H          22.7263   76.7688    3.9054 H       1  UNL1        0.2106
     41 O          25.5925   75.1405    4.6089 O.co2   1  UNL1       -0.5466
     42 O          26.5991   73.6405    3.2175 O.co2   1  UNL1       -0.5466
     43 C          25.5974   74.2135    3.6190 C.2     1  UNL1        0.0799
@<TRIPOS>UNITY_ATOM_ATTR
2 1
charge -1
26 1
charge -1
41 1
charge -1
@<TRIPOS>BOND
     1     1     4    1
     2     1    24    1
     3     1     2    1
     4     1     3    2
     5    25    28    1
     6    25    24    1
     7    25    26    1
     8    25    27    2
     9     6    11    1
    10     6    12    1
    11    29    36    1
    12    29    37    1
    13     7     9    1
    14     7    13    1
    15     8    10    1
    16     8    14    1
    17     4     5    1
    18    28    36    1
    19    30    33    1
    20    30    38    1
    21    31    34    1
    22    31    39    1
    23    32    35    1
    24    32    40    1
    25    41    43   ar
    26    15    19    2
    27    42    43   ar
    28    16    22    2
    29    17    12    1
    30    17    19   ar
    31    17    20   ar
    32    18    19   ar
    33    18    22   ar
    34    18    23    1
    35     9    10    1
    36     9    11    1
    37    10    12    1
    38    11     5    1
    39    33    34    1
    40    33    35    1
    41    34    36    1
    42    35    37    1
    43    37    43    1
    44    20    21   ar
    45    21    22   ar
@<TRIPOS>MOLECULE
*****
 43 45 0 0 0
SMALL
GASTEIGER

@<TRIPOS>ATOM
      1 P          21.8132   72.6614   -4.9379 P.3     1  UNL1        0.2189
      2 O          21.0940   74.0963   -5.1442 O.co2   1  UNL1       -0.4371
      3 O          22.9970   72.4125   -5.8259 O.2     1  UNL1       -0.5170
      4 O          20.6014   71.5972   -5.0679 O.3     1  UNL1       -0.3112
      5 C          20.0472   71.0556   -3.8830 C.3     1  UNL1        0.1811
      6 O          18.1623   71.7967   -5.1774 O.3     1  UNL1       -0.3308
      7 O          16.4514   70.4907   -3.0897 O.3     1  UNL1       -0.3794
      8 O          16.4279   68.6596   -5.1103 O.3     1  UNL1       -0.3779
      9 C          17.7146   70.0771   -3.6111 C.3     1  UNL1        0.1713
     10 C          17.5468   69.5152   -5.0070 C.3     1  UNL1        0.1895
     11 C          18.5480   71.3251   -3.8682 C.3     1  UNL1        0.1764
     12 C          17.3968   70.7772   -5.8391 C.3     1  UNL1        0.2383
     13 H          15.9011   69.7102   -2.9175 H       1  UNL1        0.2105
     14 H          16.5722   67.8712   -4.5630 H       1  UNL1        0.2106
     15 O          15.7625   70.5711   -8.1333 O.2     1  UNL1       -0.2464
     16 O          19.4110   70.1543  -10.9187 O.2     1  UNL1       -0.2670
     17 N          17.8934   70.6143   -7.1762 N.ar    1  UNL1       -0.2551
     18 N          17.5812   70.3626   -9.5183 N.ar    1  UNL1       -0.2743
     19 C          16.9875   70.5207   -8.2591 C.ar    1  UNL1        0.3323
     20 C          19.2626   70.5504   -7.4045 C.ar    1  UNL1        0.0869
     21 C          19.8136   70.3996   -8.6105 C.ar    1  UNL1        0.0795
     22 C          18.9370   70.2930   -9.7952 C.ar    1  UNL1        0.2626
     23 H          16.9706   70.2932  -10.2875 H       1  UNL1        0.1734
     24 O          22.1431   72.6450   -3.3556 O.3     1  UNL1       -0.2703
     25 P          23.5008   72.2782   -2.5582 P.3     1  UNL1        0.2208
     26 O          24.4117   73.6025   -2.7501 O.co2   1  UNL1       -0.4371
     27 O          24.1563   71.0058   -3.0111 O.2     1  UNL1       -0.5170
     28 O          23.0786   72.2965   -1.0013 O.3     1  UNL1       -0.2858
     29 O          23.9717   70.7490    0.5533 O.3     1  UNL1       -0.3226
     30 O          20.5503   72.0114    2.4946 O.3     1  UNL1       -0.3794
     31 O          20.5049   71.4503   -0.3720 O.3     1  UNL1       -0.3775
     32 O          23.1538   72.9876    3.3430 O.3     1  UNL1       -0.3792
     33 C          21.6826   72.1381    1.6345 C.3     1  UNL1        0.1718
     34 C          21.5797   71.1189    0.4995 C.3     1  UNL1        0.1968
     35 C          22.9404   71.8818    2.4677 C.3     1  UNL1        0.1723
     36 C          22.8775   71.0663   -0.3078 C.3     1  UNL1        0.2706
     37 C          24.1716   71.7166    1.5814 C.3     1  UNL1        0.1830
     38 H          19.7390   72.1701    1.9869 H       1  UNL1        0.2105
     39 H          19.6783   71.4857    0.1337 H       1  UNL1        0.2106
     40 H          22.3773   73.1037    3.9125 H       1  UNL1        0.2106
     41 O          25.0426   69.8768    2.7467 O.co2   1  UNL1       -0.5466
     42 O          26.3516   71.7391    2.6150 O.co2   1  UNL1       -0.5466
     43 C          25.3131   71.1481    2.3598 C.2     1  UNL1        0.0799
@<TRIPOS>UNITY_ATOM_ATTR
2 1
charge -1
26 1
charge -1
41 1
charge -1
@<TRIPOS>BOND
     1     1     4    1
     2     1    24    1
     3     1     2    1
     4     1     3    2
     5    25    28    1
     6    25    24    1
     7    25    26    1
     8    25    27    2
     9     6    11    1
    10     6    12    1
    11    29    36    1
    12    29    37    1
    13     7     9    1
    14     7    13    1
    15     8    10    1
    16     8    14    1
    17     4     5    1
    18    28    36    1
    19    30    33    1
    20    30    38    1
    21    31    34    1
    22    31    39    1
    23    32    35    1
    24    32    40    1
    25    41    43   ar
    26    15    19    2
    27    42    43   ar
    28    16    22    2
    29    17    12    1
    30    17    19   ar
    31    17    20   ar
    32    18    19   ar
    33    18    22   ar
    34    18    23    1
    35     9    10    1
    36     9    11    1
    37    10    12    1
    38    11     5    1
    39    33    34    1
    40    33    35    1
    41    34    36    1
    42    35    37    1
    43    37    43    1
    44    20    21   ar
    45    21    22   ar
@<TRIPOS>MOLECULE
*****
 43 45 0 0 0
SMALL
GASTEIGER

@<TRIPOS>ATOM
      1 P          23.4941   73.5936   -4.1807 P.3     1  UNL1        0.2189
      2 O          22.7448   75.0097   -4.4092 O.co2   1  UNL1       -0.4371
      3 O          24.9869   73.6799   -4.0540 O.2     1  UNL1       -0.5170
      4 O          22.9438   72.6641   -5.3853 O.3     1  UNL1       -0.3112
      5 C          21.5790   72.2876   -5.3794 C.3     1  UNL1        0.1811
      6 O          20.4955   70.3486   -6.2982 O.3     1  UNL1       -0.3308
      7 O          20.6455   71.7489   -8.9455 O.3     1  UNL1       -0.3794
      8 O          18.0575   72.1679   -8.1956 O.3     1  UNL1       -0.3779
      9 C          20.4225   72.2955   -7.6454 C.3     1  UNL1        0.1713
     10 C          19.0179   71.9786   -7.1776 C.3     1  UNL1        0.1895
     11 C          21.2727   71.5124   -6.6544 C.3     1  UNL1        0.1764
     12 C          19.1460   70.5242   -6.7577 C.3     1  UNL1        0.2383
     13 H          20.1127   72.2332   -9.5960 H       1  UNL1        0.2105
     14 H          18.0134   73.1094   -8.4274 H       1  UNL1        0.2106
     15 O          16.4463   69.7870   -7.1381 O.2     1  UNL1       -0.2464
     16 O          15.7737   69.2187   -2.6139 O.2     1  UNL1       -0.2670
     17 N          18.2428   70.1786   -5.6967 N.ar    1  UNL1       -0.2551
     18 N          16.1136   69.5056   -4.8844 N.ar    1  UNL1       -0.2743
     19 C          16.9062   69.8230   -5.9953 C.ar    1  UNL1        0.3323
     20 C          18.6832   70.1923   -4.3788 C.ar    1  UNL1        0.0869
     21 C          17.9160   69.8873   -3.3305 C.ar    1  UNL1        0.0795
     22 C          16.5064   69.5056   -3.5557 C.ar    1  UNL1        0.2626
     23 H          15.1787   69.2569   -5.0670 H       1  UNL1        0.1734
     24 O          22.7420   72.9903   -2.8834 O.3     1  UNL1       -0.2703
     25 P          22.8466   71.5412   -2.1741 P.3     1  UNL1        0.2208
     26 O          24.1893   70.9091   -2.8206 O.co2   1  UNL1       -0.4371
     27 O          21.6221   70.6875   -2.3342 O.2     1  UNL1       -0.5170
     28 O          23.2436   71.8622   -0.6439 O.3     1  UNL1       -0.2858
     29 O          24.6080   70.8595    1.0121 O.3     1  UNL1       -0.3226
     30 O          21.2652   71.9105    3.2005 O.3     1  UNL1       -0.3794
     31 O          20.9850   70.7470    0.5355 O.3     1  UNL1       -0.3775
     32 O          23.7062   73.4734    3.4239 O.3     1  UNL1       -0.3792
     33 C          22.2370   72.0396    2.1627 C.3     1  UNL1        0.1718
     34 C          22.2018   70.7980    1.2713 C.3     1  UNL1        0.1968
     35 C          23.6122   72.1855    2.8180 C.3     1  UNL1        0.1723
     36 C          23.3765   70.7940    0.2921 C.3     1  UNL1        0.2706
     37 C          24.7349   72.0450    1.7941 C.3     1  UNL1        0.1830
     38 H          20.3831   71.8164    2.8078 H       1  UNL1        0.2105
     39 H          20.2353   70.7496    1.1506 H       1  UNL1        0.2106
     40 H          22.9970   73.5757    4.0776 H       1  UNL1        0.2106
     41 O          26.4247   72.9946    3.1149 O.co2   1  UNL1       -0.5466
     42 O          26.7092   70.8289    2.4609 O.co2   1  UNL1       -0.5466
     43 C          26.0524   71.8592    2.4738 C.2     1  UNL1        0.0799
@<TRIPOS>UNITY_ATOM_ATTR
2 1
charge -1
26 1
charge -1
41 1
charge -1
@<TRIPOS>BOND
     1     1     4    1
     2     1    24    1
     3     1     2    1
     4     1     3    2
     5    25    28    1
     6    25    24    1
     7    25    26    1
     8    25    27    2
     9     6    11    1
    10     6    12    1
    11    29    36    1
    12    29    37    1
    13     7     9    1
    14     7    13    1
    15     8    10    1
    16     8    14    1
    17     4     5    1
    18    28    36    1
    19    30    33    1
    20    30    38    1
    21    31    34    1
    22    31    39    1
    23    32    35    1
    24    32    40    1
    25    41    43   ar
    26    15    19    2
    27    42    43   ar
    28    16    22    2
    29    17    12    1
    30    17    19   ar
    31    17    20   ar
    32    18    19   ar
    33    18    22   ar
    34    18    23    1
    35     9    10    1
    36     9    11    1
    37    10    12    1
    38    11     5    1
    39    33    34    1
    40    33    35    1
    41    34    36    1
    42    35    37    1
    43    37    43    1
    44    20    21   ar
    45    21    22   ar
@<TRIPOS>MOLECULE
*****
 43 45 0 0 0
SMALL
GASTEIGER

@<TRIPOS>ATOM
      1 P          21.4472   71.3649   -2.6680 P.3     1  UNL1        0.2189
      2 O          22.8758   70.7087   -3.0516 O.co2   1  UNL1       -0.4371
      3 O          20.9922   71.1141   -1.2602 O.2     1  UNL1       -0.5170
      4 O          20.4533   70.8395   -3.8317 O.3     1  UNL1       -0.3112
      5 C          19.5377   69.8048   -3.5226 C.3     1  UNL1        0.1811
      6 O          17.9756   71.1691   -4.7376 O.3     1  UNL1       -0.3308
      7 O          15.8364   69.8496   -3.1023 O.3     1  UNL1       -0.3794
      8 O          15.6816   68.5143   -5.4748 O.3     1  UNL1       -0.3779
      9 C          17.0466   69.2978   -3.6214 C.3     1  UNL1        0.1713
     10 C          16.9248   69.0793   -5.1147 C.3     1  UNL1        0.1895
     11 C          18.1237   70.3710   -3.5433 C.3     1  UNL1        0.1764
     12 C          17.1057   70.4875   -5.6552 C.3     1  UNL1        0.2383
     13 H          15.1332   69.1821   -3.1419 H       1  UNL1        0.2105
     14 H          15.6150   67.6184   -5.1073 H       1  UNL1        0.2106
     15 O          15.6484   70.4339   -8.0739 O.2     1  UNL1       -0.2464
     16 O          19.4972   70.5420  -10.6075 O.2     1  UNL1       -0.2670
     17 N          17.7017   70.5008   -6.9611 N.ar    1  UNL1       -0.2551
     18 N          17.5667   70.4867   -9.3335 N.ar    1  UNL1       -0.2743
     19 C          16.8797   70.4712   -8.1125 C.ar    1  UNL1        0.3323
     20 C          19.0844   70.5445   -7.0921 C.ar    1  UNL1        0.0869
     21 C          19.7248   70.5590   -8.2627 C.ar    1  UNL1        0.0795
     22 C          18.9397   70.5292   -9.5142 C.ar    1  UNL1        0.2626
     23 H          17.0158   70.4646  -10.1491 H       1  UNL1        0.1734
     24 O          21.6520   72.9242   -3.0417 O.3     1  UNL1       -0.2703
     25 P          22.9850   73.8376   -3.0912 P.3     1  UNL1        0.2208
     26 O          22.4028   75.3288   -3.3309 O.co2   1  UNL1       -0.4371
     27 O          23.9958   73.3971   -4.1102 O.2     1  UNL1       -0.5170
     28 O          23.5280   73.8518   -1.5722 O.3     1  UNL1       -0.2858
     29 O          21.9975   74.2855    0.1824 O.3     1  UNL1       -0.3226
     30 O          25.6265   74.8608    2.0710 O.3     1  UNL1       -0.3794
     31 O          25.1865   75.8771   -0.6322 O.3     1  UNL1       -0.3775
     32 O          24.0987   72.4351    2.5537 O.3     1  UNL1       -0.3792
     33 C          24.7247   74.2763    1.1313 C.3     1  UNL1        0.1718
     34 C          24.1646   75.3642    0.2147 C.3     1  UNL1        0.1968
     35 C          23.5938   73.6062    1.9149 C.3     1  UNL1        0.1723
     36 C          23.0277   74.8187   -0.6506 C.3     1  UNL1        0.2706
     37 C          22.4428   73.2036    0.9975 C.3     1  UNL1        0.1830
     38 H          26.3538   75.2927    1.5959 H       1  UNL1        0.2105
     39 H          25.9113   76.2247   -0.0898 H       1  UNL1        0.2106
     40 H          24.8320   72.6775    3.1405 H       1  UNL1        0.2106
     41 O          21.3939   71.6796    2.4392 O.co2   1  UNL1       -0.5466
     42 O          20.2151   73.5433    1.8596 O.co2   1  UNL1       -0.5466
     43 C          21.2257   72.8599    1.7930 C.2     1  UNL1        0.0799
@<TRIPOS>UNITY_ATOM_ATTR
2 1
charge -1
26 1
charge -1
41 1
charge -1
@<TRIPOS>BOND
     1     1     4    1
     2     1    24    1
     3     1     2    1
     4     1     3    2
     5    25    28    1
     6    25    24    1
     7    25    26    1
     8    25    27    2
     9     6    11    1
    10     6    12    1
    11    29    36    1
    12    29    37    1
    13     7     9    1
    14     7    13    1
    15     8    10    1
    16     8    14    1
    17     4     5    1
    18    28    36    1
    19    30    33    1
    20    30    38    1
    21    31    34    1
    22    31    39    1
    23    32    35    1
    24    32    40    1
    25    41    43   ar
    26    15    19    2
    27    42    43   ar
    28    16    22    2
    29    17    12    1
    30    17    19   ar
    31    17    20   ar
    32    18    19   ar
    33    18    22   ar
    34    18    23    1
    35     9    10    1
    36     9    11    1
    37    10    12    1
    38    11     5    1
    39    33    34    1
    40    33    35    1
    41    34    36    1
    42    35    37    1
    43    37    43    1
    44    20    21   ar
    45    21    22   ar
@<TRIPOS>MOLECULE
*****
 43 45 0 0 0
SMALL
GASTEIGER

@<TRIPOS>ATOM
      1 P          20.5643   71.7681   -1.3098 P.3     1  UNL1        0.2189
      2 O          21.9613   72.4798   -1.7108 O.co2   1  UNL1       -0.4371
      3 O          20.5804   70.2684   -1.3584 O.2     1  UNL1       -0.5170
      4 O          19.4732   72.4903   -2.2616 O.3     1  UNL1       -0.3112
      5 C          19.1276   71.8692   -3.4860 C.3     1  UNL1        0.1811
      6 O          17.3079   72.2392   -5.0123 O.3     1  UNL1       -0.3308
      7 O          15.5983   70.7633   -3.0397 O.3     1  UNL1       -0.3794
      8 O          16.0892   68.8682   -4.9380 O.3     1  UNL1       -0.3779
      9 C          16.9612   70.5381   -3.4007 C.3     1  UNL1        0.1713
     10 C          17.0417   69.8973   -4.7701 C.3     1  UNL1        0.1895
     11 C          17.6127   71.8926   -3.6439 C.3     1  UNL1        0.1764
     12 C          16.7907   71.0818   -5.6877 C.3     1  UNL1        0.2383
     13 H          15.1610   69.9120   -2.8793 H       1  UNL1        0.2105
     14 H          16.2925   68.1376   -4.3323 H       1  UNL1        0.2106
     15 O          15.4738   70.5505   -8.1291 O.2     1  UNL1       -0.2464
     16 O          19.4368   70.5756  -10.4825 O.2     1  UNL1       -0.2670
     17 N          17.4540   70.9446   -6.9535 N.ar    1  UNL1       -0.2551
     18 N          17.4490   70.5625   -9.2987 N.ar    1  UNL1       -0.2743
     19 C          16.6997   70.6776   -8.1204 C.ar    1  UNL1        0.3323
     20 C          18.8352   71.0758   -7.0305 C.ar    1  UNL1        0.0869
     21 C          19.5354   70.9636   -8.1609 C.ar    1  UNL1        0.0795
     22 C          18.8233   70.6843   -9.4251 C.ar    1  UNL1        0.2626
     23 H          16.9459   70.3747  -10.1239 H       1  UNL1        0.1734
     24 O          20.2447   72.3912    0.1471 O.3     1  UNL1       -0.2703
     25 P          21.0365   72.2680    1.5512 P.3     1  UNL1        0.2208
     26 O          21.8760   70.8941    1.3830 O.co2   1  UNL1       -0.4371
     27 O          20.1511   72.3073    2.7630 O.2     1  UNL1       -0.5170
     28 O          22.1496   73.4344    1.4971 O.3     1  UNL1       -0.2858
     29 O          24.4107   74.0174    1.1014 O.3     1  UNL1       -0.3226
     30 O          24.0990   74.5813    5.1822 O.3     1  UNL1       -0.3794
     31 O          22.8712   72.2553    3.9106 O.3     1  UNL1       -0.3775
     32 O          24.1388   76.8710    3.3915 O.3     1  UNL1       -0.3792
     33 C          23.6383   74.5556    3.8312 C.3     1  UNL1        0.1718
     34 C          23.7810   73.1412    3.2686 C.3     1  UNL1        0.1968
     35 C          24.4885   75.5383    3.0229 C.3     1  UNL1        0.1723
     36 C          23.5159   73.1221    1.7626 C.3     1  UNL1        0.2706
     37 C          24.2593   75.3708    1.5236 C.3     1  UNL1        0.1830
     38 H          23.5732   73.9642    5.7151 H       1  UNL1        0.2105
     39 H          23.0336   72.2627    4.8666 H       1  UNL1        0.2106
     40 H          24.2800   76.9908    4.3437 H       1  UNL1        0.2106
     41 O          26.3428   76.4477    1.5478 O.co2   1  UNL1       -0.5466
     42 O          25.2640   76.3148   -0.4566 O.co2   1  UNL1       -0.5466
     43 C          25.3134   76.0858    0.7427 C.2     1  UNL1        0.0799
@<TRIPOS>UNITY_ATOM_ATTR
2 1
charge -1
26 1
charge -1
41 1
charge -1
@<TRIPOS>BOND
     1     1     4    1
     2     1    24    1
     3     1     2    1
     4     1     3    2
     5    25    28    1
     6    25    24    1
     7    25    26    1
     8    25    27    2
     9     6    11    1
    10     6    12    1
    11    29    36    1
    12    29    37    1
    13     7     9    1
    14     7    13    1
    15     8    10    1
    16     8    14    1
    17     4     5    1
    18    28    36    1
    19    30    33    1
    20    30    38    1
    21    31    34    1
    22    31    39    1
    23    32    35    1
    24    32    40    1
    25    41    43   ar
    26    15    19    2
    27    42    43   ar
    28    16    22    2
    29    17    12    1
    30    17    19   ar
    31    17    20   ar
    32    18    19   ar
    33    18    22   ar
    34    18    23    1
    35     9    10    1
    36     9    11    1
    37    10    12    1
    38    11     5    1
    39    33    34    1
    40    33    35    1
    41    34    36    1
    42    35    37    1
    43    37    43    1
    44    20    21   ar
    45    21    22   ar
@<TRIPOS>MOLECULE
*****
 43 45 0 0 0
SMALL
GASTEIGER

@<TRIPOS>ATOM
      1 P          21.0401   74.1432   -4.7416 P.3     1  UNL1        0.2189
      2 O          19.9346   75.1253   -4.0841 O.co2   1  UNL1       -0.4371
      3 O          21.7061   74.6757   -5.9764 O.2     1  UNL1       -0.5170
      4 O          20.2569   72.7382   -4.9160 O.3     1  UNL1       -0.3112
      5 C          19.9670   71.9774   -3.7577 C.3     1  UNL1        0.1811
      6 O          17.8752   72.0472   -4.9398 O.3     1  UNL1       -0.3308
      7 O          16.7430   70.4733   -2.6524 O.3     1  UNL1       -0.3794
      8 O          17.1326   68.5607   -4.5566 O.3     1  UNL1       -0.3779
      9 C          18.0388   70.3982   -3.2472 C.3     1  UNL1        0.1713
     10 C          17.9592   69.7053   -4.5910 C.3     1  UNL1        0.1895
     11 C          18.4577   71.8083   -3.6402 C.3     1  UNL1        0.1764
     12 C          17.4007   70.8035   -5.4797 C.3     1  UNL1        0.2383
     13 H          16.4539   69.5841   -2.3929 H       1  UNL1        0.2105
     14 H          17.5314   67.8911   -3.9782 H       1  UNL1        0.2106
     15 O          15.6941   70.9133   -7.7273 O.2     1  UNL1       -0.2464
     16 O          19.2093   70.3404  -10.6529 O.2     1  UNL1       -0.2670
     17 N          17.8434   70.6859   -6.8402 N.ar    1  UNL1       -0.2551
     18 N          17.4464   70.6268   -9.1822 N.ar    1  UNL1       -0.2743
     19 C          16.9045   70.7543   -7.8965 C.ar    1  UNL1        0.3323
     20 C          19.1933   70.5066   -7.1172 C.ar    1  UNL1        0.0869
     21 C          19.6948   70.3868   -8.3480 C.ar    1  UNL1        0.0795
     22 C          18.7810   70.4465   -9.5077 C.ar    1  UNL1        0.2626
     23 H          16.8118   70.6693   -9.9338 H       1  UNL1        0.1734
     24 O          22.0435   73.8494   -3.5088 O.3     1  UNL1       -0.2703
     25 P          23.6500   73.6733   -3.4666 P.3     1  UNL1        0.2208
     26 O          24.1940   75.1584   -3.8114 O.co2   1  UNL1       -0.4371
     27 O          24.1755   72.5967   -4.3715 O.2     1  UNL1       -0.5170
     28 O          23.9980   73.4645   -1.9053 O.3     1  UNL1       -0.2858
     29 O          22.0629   73.1712   -0.5716 O.3     1  UNL1       -0.3226
     30 O          25.0292   73.4186    2.2935 O.3     1  UNL1       -0.3794
     31 O          25.0436   75.2130   -0.0118 O.3     1  UNL1       -0.3775
     32 O          23.8566   70.8437    1.6256 O.3     1  UNL1       -0.3792
     33 C          24.4708   73.0935    1.0205 C.3     1  UNL1        0.1718
     34 C          23.9576   74.3663    0.3466 C.3     1  UNL1        0.1968
     35 C          23.3205   72.1097    1.2459 C.3     1  UNL1        0.1723
     36 C          23.1504   74.0333   -0.9089 C.3     1  UNL1        0.2706
     37 C          22.4876   71.9270   -0.0196 C.3     1  UNL1        0.1830
     38 H          25.7624   74.0428    2.1753 H       1  UNL1        0.2105
     39 H          25.5603   75.4281    0.7801 H       1  UNL1        0.2106
     40 H          24.3891   70.9461    2.4299 H       1  UNL1        0.2106
     41 O          20.8922   71.3626    1.6045 O.co2   1  UNL1       -0.5466
     42 O          20.5059   70.6471   -0.5257 O.co2   1  UNL1       -0.5466
     43 C          21.1977   71.2392    0.2891 C.2     1  UNL1        0.0799
@<TRIPOS>UNITY_ATOM_ATTR
2 1
charge -1
26 1
charge -1
41 1
charge -1
@<TRIPOS>BOND
     1     1     4    1
     2     1    24    1
     3     1     2    1
     4     1     3    2
     5    25    28    1
     6    25    24    1
     7    25    26    1
     8    25    27    2
     9     6    11    1
    10     6    12    1
    11    29    36    1
    12    29    37    1
    13     7     9    1
    14     7    13    1
    15     8    10    1
    16     8    14    1
    17     4     5    1
    18    28    36    1
    19    30    33    1
    20    30    38    1
    21    31    34    1
    22    31    39    1
    23    32    35    1
    24    32    40    1
    25    41    43   ar
    26    15    19    2
    27    42    43   ar
    28    16    22    2
    29    17    12    1
    30    17    19   ar
    31    17    20   ar
    32    18    19   ar
    33    18    22   ar
    34    18    23    1
    35     9    10    1
    36     9    11    1
    37    10    12    1
    38    11     5    1
    39    33    34    1
    40    33    35    1
    41    34    36    1
    42    35    37    1
    43    37    43    1
    44    20    21   ar
    45    21    22   ar
@<TRIPOS>MOLECULE
*****
 43 45 0 0 0
SMALL
GASTEIGER

@<TRIPOS>ATOM
      1 P          23.3838   71.8418   -3.3213 P.3     1  UNL1        0.2189
      2 O          24.0789   73.0146   -4.1932 O.co2   1  UNL1       -0.4371
      3 O          24.2817   70.6889   -2.9803 O.2     1  UNL1       -0.5170
      4 O          22.0520   71.4704   -4.1617 O.3     1  UNL1       -0.3112
      5 C          21.5952   72.3831   -5.1429 C.3     1  UNL1        0.1811
      6 O          20.5508   70.4456   -6.1089 O.3     1  UNL1       -0.3308
      7 O          20.7206   71.8911   -8.7306 O.3     1  UNL1       -0.3794
      8 O          18.1166   72.2641   -8.0120 O.3     1  UNL1       -0.3779
      9 C          20.4715   72.4132   -7.4253 C.3     1  UNL1        0.1713
     10 C          19.0646   72.0705   -6.9833 C.3     1  UNL1        0.1895
     11 C          21.3176   71.6251   -6.4347 C.3     1  UNL1        0.1764
     12 C          19.2058   70.6112   -6.5852 C.3     1  UNL1        0.2383
     13 H          20.1908   72.3790   -9.3809 H       1  UNL1        0.2105
     14 H          18.0635   73.2085   -8.2291 H       1  UNL1        0.2106
     15 O          16.5364   69.7983   -7.0213 O.2     1  UNL1       -0.2464
     16 O          15.7907   69.1965   -2.5129 O.2     1  UNL1       -0.2670
     17 N          18.2920   70.2365   -5.5433 N.ar    1  UNL1       -0.2551
     18 N          16.1673   69.5003   -4.7754 N.ar    1  UNL1       -0.2743
     19 C          16.9724   69.8438   -5.8694 C.ar    1  UNL1        0.3323
     20 C          18.7057   70.2586   -4.2169 C.ar    1  UNL1        0.0869
     21 C          17.9268   69.9284   -3.1849 C.ar    1  UNL1        0.0795
     22 C          16.5335   69.5073   -3.4392 C.ar    1  UNL1        0.2626
     23 H          15.2437   69.2255   -4.9773 H       1  UNL1        0.1734
     24 O          22.7966   72.6389   -2.0436 O.3     1  UNL1       -0.2703
     25 P          21.4134   72.4615   -1.2257 P.3     1  UNL1        0.2208
     26 O          21.1657   70.8622   -1.2606 O.co2   1  UNL1       -0.4371
     27 O          20.2720   73.2759   -1.7622 O.2     1  UNL1       -0.5170
     28 O          21.8008   72.7801    0.3076 O.3     1  UNL1       -0.2858
     29 O          23.1279   74.2485    1.6083 O.3     1  UNL1       -0.3226
     30 O          24.3506   70.5554    2.9990 O.3     1  UNL1       -0.3794
     31 O          23.9284   70.9963    0.1421 O.3     1  UNL1       -0.3775
     32 O          22.5679   72.2006    4.6008 O.3     1  UNL1       -0.3792
     33 C          23.4317   71.5065    2.4614 C.3     1  UNL1        0.1718
     34 C          23.9577   72.0264    1.1233 C.3     1  UNL1        0.1968
     35 C          23.2996   72.6552    3.4639 C.3     1  UNL1        0.1723
     36 C          23.1227   73.2087    0.6294 C.3     1  UNL1        0.2706
     37 C          22.5639   73.8449    2.8541 C.3     1  UNL1        0.1830
     38 H          24.4507   69.8160    2.3789 H       1  UNL1        0.2105
     39 H          24.4560   70.2429    0.4491 H       1  UNL1        0.2106
     40 H          23.0255   71.4433    4.9982 H       1  UNL1        0.2106
     41 O          22.0601   76.1140    3.1684 O.co2   1  UNL1       -0.5466
     42 O          23.3660   75.1105    4.7452 O.co2   1  UNL1       -0.5466
     43 C          22.7259   75.0619    3.7056 C.2     1  UNL1        0.0799
@<TRIPOS>UNITY_ATOM_ATTR
2 1
charge -1
26 1
charge -1
41 1
charge -1
@<TRIPOS>BOND
     1     1     4    1
     2     1    24    1
     3     1     2    1
     4     1     3    2
     5    25    28    1
     6    25    24    1
     7    25    26    1
     8    25    27    2
     9     6    11    1
    10     6    12    1
    11    29    36    1
    12    29    37    1
    13     7     9    1
    14     7    13    1
    15     8    10    1
    16     8    14    1
    17     4     5    1
    18    28    36    1
    19    30    33    1
    20    30    38    1
    21    31    34    1
    22    31    39    1
    23    32    35    1
    24    32    40    1
    25    41    43   ar
    26    15    19    2
    27    42    43   ar
    28    16    22    2
    29    17    12    1
    30    17    19   ar
    31    17    20   ar
    32    18    19   ar
    33    18    22   ar
    34    18    23    1
    35     9    10    1
    36     9    11    1
    37    10    12    1
    38    11     5    1
    39    33    34    1
    40    33    35    1
    41    34    36    1
    42    35    37    1
    43    37    43    1
    44    20    21   ar
    45    21    22   ar
@<TRIPOS>MOLECULE
*****
 43 45 0 0 0
SMALL
GASTEIGER

@<TRIPOS>ATOM
      1 P          21.5662   72.3896   -5.5649 P.3     1  UNL1        0.2189
      2 O          23.1501   72.0992   -5.4045 O.co2   1  UNL1       -0.4371
      3 O          20.7314   72.0259   -4.3722 O.2     1  UNL1       -0.5170
      4 O          21.1737   71.6496   -6.9492 O.3     1  UNL1       -0.3112
      5 C          19.9644   72.0117   -7.5902 C.3     1  UNL1        0.1811
      6 O          18.7798   69.9689   -7.1409 O.3     1  UNL1       -0.3308
      7 O          18.0357   69.9797  -10.0457 O.3     1  UNL1       -0.3794
      8 O          15.7729   70.9177   -8.8475 O.3     1  UNL1       -0.3779
      9 C          18.1806   71.0788   -9.1459 C.3     1  UNL1        0.1713
     10 C          17.0054   71.1344   -8.1930 C.3     1  UNL1        0.1895
     11 C          19.3379   70.7676   -8.2068 C.3     1  UNL1        0.1764
     12 C          17.3462   70.0299   -7.2072 C.3     1  UNL1        0.2383
     13 H          17.3019   70.1556  -10.6559 H       1  UNL1        0.2105
     14 H          15.6013   71.6477   -9.4636 H       1  UNL1        0.2106
     15 O          16.4336   68.0333   -5.4303 O.2     1  UNL1       -0.2464
     16 O          15.3812   71.1395   -2.1917 O.2     1  UNL1       -0.2670
     17 N          16.8287   70.2890   -5.8935 N.ar    1  UNL1       -0.2551
     18 N          15.9094   69.5824   -3.8194 N.ar    1  UNL1       -0.2743
     19 C          16.3964   69.2146   -5.0806 C.ar    1  UNL1        0.3323
     20 C          16.7548   71.5941   -5.4221 C.ar    1  UNL1        0.0869
     21 C          16.2883   71.9291   -4.2175 C.ar    1  UNL1        0.0795
     22 C          15.8157   70.8660   -3.3065 C.ar    1  UNL1        0.2626
     23 H          15.6006   68.8517   -3.2362 H       1  UNL1        0.1734
     24 O          21.5230   73.9552   -5.9649 O.3     1  UNL1       -0.2703
     25 P          22.4827   74.8320   -6.9261 P.3     1  UNL1        0.2208
     26 O          21.4471   75.8241   -7.6770 O.co2   1  UNL1       -0.4371
     27 O          23.3387   74.0163   -7.8512 O.2     1  UNL1       -0.5170
     28 O          23.3059   75.7879   -5.9206 O.3     1  UNL1       -0.2858
     29 O          25.1148   75.2181   -4.5021 O.3     1  UNL1       -0.3226
     30 O          23.3469   78.3104   -2.4091 O.3     1  UNL1       -0.3794
     31 O          21.7057   76.2648   -3.6962 O.3     1  UNL1       -0.3775
     32 O          25.8172   78.7639   -3.8730 O.3     1  UNL1       -0.3792
     33 C          23.7401   77.5809   -3.5715 C.3     1  UNL1        0.1718
     34 C          23.1172   76.1851   -3.5347 C.3     1  UNL1        0.1968
     35 C          25.2672   77.4823   -3.5740 C.3     1  UNL1        0.1723
     36 C          23.6955   75.2986   -4.6386 C.3     1  UNL1        0.2706
     37 C          25.7594   76.4846   -4.6184 C.3     1  UNL1        0.1830
     38 H          22.3800   78.3857   -2.3861 H       1  UNL1        0.2105
     39 H          21.3322   76.8260   -2.9991 H       1  UNL1        0.2106
     40 H          25.5115   79.4084   -3.2157 H       1  UNL1        0.2106
     41 O          27.4058   74.8165   -4.5267 O.co2   1  UNL1       -0.5466
     42 O          28.0746   76.9607   -4.1341 O.co2   1  UNL1       -0.5466
     43 C          27.1985   76.1502   -4.3958 C.2     1  UNL1        0.0799
@<TRIPOS>UNITY_ATOM_ATTR
2 1
charge -1
26 1
charge -1
41 1
charge -1
@<TRIPOS>BOND
     1     1     4    1
     2     1    24    1
     3     1     2    1
     4     1     3    2
     5    25    28    1
     6    25    24    1
     7    25    26    1
     8    25    27    2
     9     6    11    1
    10     6    12    1
    11    29    36    1
    12    29    37    1
    13     7     9    1
    14     7    13    1
    15     8    10    1
    16     8    14    1
    17     4     5    1
    18    28    36    1
    19    30    33    1
    20    30    38    1
    21    31    34    1
    22    31    39    1
    23    32    35    1
    24    32    40    1
    25    41    43   ar
    26    15    19    2
    27    42    43   ar
    28    16    22    2
    29    17    12    1
    30    17    19   ar
    31    17    20   ar
    32    18    19   ar
    33    18    22   ar
    34    18    23    1
    35     9    10    1
    36     9    11    1
    37    10    12    1
    38    11     5    1
    39    33    34    1
    40    33    35    1
    41    34    36    1
    42    35    37    1
    43    37    43    1
    44    20    21   ar
    45    21    22   ar
@<TRIPOS>MOLECULE
*****
 43 45 0 0 0
SMALL
GASTEIGER

@<TRIPOS>ATOM
      1 P          23.2273   72.0449   -2.9581 P.3     1  UNL1        0.2189
      2 O          23.8141   73.4300   -3.5548 O.co2   1  UNL1       -0.4371
      3 O          24.1502   70.8667   -3.0670 O.2     1  UNL1       -0.5170
      4 O          21.7929   71.8838   -3.6891 O.3     1  UNL1       -0.3112
      5 C          21.4917   72.7323   -4.7817 C.3     1  UNL1        0.1811
      6 O          20.7149   70.6853   -5.7738 O.3     1  UNL1       -0.3308
      7 O          21.1478   72.0224   -8.4226 O.3     1  UNL1       -0.3794
      8 O          18.4517   72.2421   -8.0778 O.3     1  UNL1       -0.3779
      9 C          20.6902   72.5827   -7.1916 C.3     1  UNL1        0.1713
     10 C          19.2610   72.1613   -6.9232 C.3     1  UNL1        0.1895
     11 C          21.4420   71.9005   -6.0568 C.3     1  UNL1        0.1764
     12 C          19.4396   70.7345   -6.4330 C.3     1  UNL1        0.2383
     13 H          20.6816   72.4428   -9.1626 H       1  UNL1        0.2105
     14 H          18.3684   73.1700   -8.3499 H       1  UNL1        0.2106
     15 O          16.9130   69.7150   -7.1767 O.2     1  UNL1       -0.2464
     16 O          15.5986   69.2631   -2.7821 O.2     1  UNL1       -0.2670
     17 N          18.4182   70.3425   -5.5036 N.ar    1  UNL1       -0.2551
     18 N          16.2604   69.4919   -4.9872 N.ar    1  UNL1       -0.2743
     19 C          17.1836   69.8427   -5.9811 C.ar    1  UNL1        0.3323
     20 C          18.6444   70.4531   -4.1370 C.ar    1  UNL1        0.0869
     21 C          17.7548   70.1145   -3.2017 C.ar    1  UNL1        0.0795
     22 C          16.4394   69.5844   -3.6165 C.ar    1  UNL1        0.2626
     23 H          15.3927   69.1433   -5.2954 H       1  UNL1        0.1734
     24 O          22.8213   72.4447   -1.4454 O.3     1  UNL1       -0.2703
     25 P          22.6220   71.5346   -0.1242 P.3     1  UNL1        0.2208
     26 O          24.0576   70.8054    0.0427 O.co2   1  UNL1       -0.4371
     27 O          21.4547   70.5931   -0.1953 O.2     1  UNL1       -0.5170
     28 O          22.5575   72.5902    1.0940 O.3     1  UNL1       -0.2858
     29 O          20.8426   74.0146    1.8936 O.3     1  UNL1       -0.3226
     30 O          24.2062   76.3433    2.4693 O.3     1  UNL1       -0.3794
     31 O          23.8855   74.7849    0.0191 O.3     1  UNL1       -0.3775
     32 O          22.9315   75.0365    4.7316 O.3     1  UNL1       -0.3792
     33 C          23.4614   75.1284    2.3831 C.3     1  UNL1        0.1718
     34 C          22.8606   74.9947    0.9835 C.3     1  UNL1        0.1968
     35 C          22.3520   75.1782    3.4360 C.3     1  UNL1        0.1723
     36 C          21.8723   73.8293    0.9215 C.3     1  UNL1        0.2706
     37 C          21.3378   74.0568    3.2300 C.3     1  UNL1        0.1830
     38 H          24.9170   76.3345    1.8091 H       1  UNL1        0.2105
     39 H          24.5164   75.5206    0.0532 H       1  UNL1        0.2106
     40 H          23.5791   75.7441    4.8753 H       1  UNL1        0.2106
     41 O          18.9965   74.1939    3.2630 O.co2   1  UNL1       -0.5466
     42 O          20.0877   74.5622    5.2308 O.co2   1  UNL1       -0.5466
     43 C          20.1046   74.3020    4.0371 C.2     1  UNL1        0.0799
@<TRIPOS>UNITY_ATOM_ATTR
2 1
charge -1
26 1
charge -1
41 1
charge -1
@<TRIPOS>BOND
     1     1     4    1
     2     1    24    1
     3     1     2    1
     4     1     3    2
     5    25    28    1
     6    25    24    1
     7    25    26    1
     8    25    27    2
     9     6    11    1
    10     6    12    1
    11    29    36    1
    12    29    37    1
    13     7     9    1
    14     7    13    1
    15     8    10    1
    16     8    14    1
    17     4     5    1
    18    28    36    1
    19    30    33    1
    20    30    38    1
    21    31    34    1
    22    31    39    1
    23    32    35    1
    24    32    40    1
    25    41    43   ar
    26    15    19    2
    27    42    43   ar
    28    16    22    2
    29    17    12    1
    30    17    19   ar
    31    17    20   ar
    32    18    19   ar
    33    18    22   ar
    34    18    23    1
    35     9    10    1
    36     9    11    1
    37    10    12    1
    38    11     5    1
    39    33    34    1
    40    33    35    1
    41    34    36    1
    42    35    37    1
    43    37    43    1
    44    20    21   ar
    45    21    22   ar
@<TRIPOS>MOLECULE
*****
 43 45 0 0 0
SMALL
GASTEIGER

@<TRIPOS>ATOM
      1 P          20.5452   72.5701    0.0908 P.3     1  UNL1        0.2189
      2 O          20.7306   71.0061    0.4628 O.co2   1  UNL1       -0.4371
      3 O          19.3869   73.2480    0.7622 O.2     1  UNL1       -0.5170
      4 O          20.5264   72.5851   -1.5270 O.3     1  UNL1       -0.3112
      5 C          20.2076   71.3870   -2.2106 C.3     1  UNL1        0.1811
      6 O          20.8548   70.1661   -4.1774 O.3     1  UNL1       -0.3308
      7 O          23.3236   71.8680   -4.1949 O.3     1  UNL1       -0.3794
      8 O          21.7721   73.0492   -6.1010 O.3     1  UNL1       -0.3779
      9 C          21.9887   72.2161   -3.8270 C.3     1  UNL1        0.1713
     10 C          21.1222   72.3478   -5.0616 C.3     1  UNL1        0.1895
     11 C          21.3660   71.0156   -3.1274 C.3     1  UNL1        0.1764
     12 C          20.8539   70.8949   -5.4151 C.3     1  UNL1        0.2383
     13 H          23.7421   72.6197   -4.6437 H       1  UNL1        0.2105
     14 H          21.9201   73.9685   -5.8274 H       1  UNL1        0.2106
     15 O          20.4293   71.1648   -8.1942 O.2     1  UNL1       -0.2464
     16 O          15.9455   70.1770   -7.7898 O.2     1  UNL1       -0.2670
     17 N          19.5856   70.7138   -6.0627 N.ar    1  UNL1       -0.2551
     18 N          18.1963   70.6736   -7.9900 N.ar    1  UNL1       -0.2743
     19 C          19.4798   70.8728   -7.4647 C.ar    1  UNL1        0.3323
     20 C          18.4647   70.3810   -5.3119 C.ar    1  UNL1        0.0869
     21 C          17.2478   70.1943   -5.8268 C.ar    1  UNL1        0.0795
     22 C          17.0513   70.3423   -7.2838 C.ar    1  UNL1        0.2626
     23 H          18.0974   70.7808   -8.9637 H       1  UNL1        0.1734
     24 O          21.9911   73.2009    0.4433 O.3     1  UNL1       -0.2703
     25 P          23.4736   72.8081   -0.0679 P.3     1  UNL1        0.2208
     26 O          23.7599   73.8893   -1.2382 O.co2   1  UNL1       -0.4371
     27 O          23.6173   71.3773   -0.4993 O.2     1  UNL1       -0.5170
     28 O          24.4517   73.2452    1.1383 O.3     1  UNL1       -0.2858
     29 O          25.7058   71.9558    2.6790 O.3     1  UNL1       -0.3226
     30 O          24.6356   75.2132    4.9838 O.3     1  UNL1       -0.3794
     31 O          22.7029   73.9823    3.1717 O.3     1  UNL1       -0.3775
     32 O          27.3471   74.9758    3.9627 O.3     1  UNL1       -0.3792
     33 C          24.9870   74.5253    3.7833 C.3     1  UNL1        0.1718
     34 C          23.9661   73.4208    3.5088 C.3     1  UNL1        0.1968
     35 C          26.3821   73.9255    3.9730 C.3     1  UNL1        0.1723
     36 C          24.4310   72.5180    2.3653 C.3     1  UNL1        0.2706
     37 C          26.7213   72.9406    2.8579 C.3     1  UNL1        0.1830
     38 H          23.7524   75.6028    4.8868 H       1  UNL1        0.2105
     39 H          22.4020   74.5566    3.8928 H       1  UNL1        0.2106
     40 H          27.1425   75.6098    4.6678 H       1  UNL1        0.2106
     41 O          27.8870   70.9230    2.5899 O.co2   1  UNL1       -0.5466
     42 O          28.8132   72.4839    3.9700 O.co2   1  UNL1       -0.5466
     43 C          27.9202   72.1247    3.2174 C.2     1  UNL1        0.0799
@<TRIPOS>UNITY_ATOM_ATTR
2 1
charge -1
26 1
charge -1
41 1
charge -1
@<TRIPOS>BOND
     1     1     4    1
     2     1    24    1
     3     1     2    1
     4     1     3    2
     5    25    28    1
     6    25    24    1
     7    25    26    1
     8    25    27    2
     9     6    11    1
    10     6    12    1
    11    29    36    1
    12    29    37    1
    13     7     9    1
    14     7    13    1
    15     8    10    1
    16     8    14    1
    17     4     5    1
    18    28    36    1
    19    30    33    1
    20    30    38    1
    21    31    34    1
    22    31    39    1
    23    32    35    1
    24    32    40    1
    25    41    43   ar
    26    15    19    2
    27    42    43   ar
    28    16    22    2
    29    17    12    1
    30    17    19   ar
    31    17    20   ar
    32    18    19   ar
    33    18    22   ar
    34    18    23    1
    35     9    10    1
    36     9    11    1
    37    10    12    1
    38    11     5    1
    39    33    34    1
    40    33    35    1
    41    34    36    1
    42    35    37    1
    43    37    43    1
    44    20    21   ar
    45    21    22   ar
@<TRIPOS>MOLECULE
*****
 43 45 0 0 0
SMALL
GASTEIGER

@<TRIPOS>ATOM
      1 P          20.0843   72.1805   -1.2570 P.3     1  UNL1        0.2189
      2 O          21.3536   73.0816   -1.6993 O.co2   1  UNL1       -0.4371
      3 O          20.3944   70.7366   -0.9908 O.2     1  UNL1       -0.5170
      4 O          18.9866   72.4621   -2.4119 O.3     1  UNL1       -0.3112
      5 C          18.7981   71.4843   -3.4183 C.3     1  UNL1        0.1811
      6 O          17.0103   71.6801   -5.0130 O.3     1  UNL1       -0.3308
      7 O          15.4581   69.8463   -3.2187 O.3     1  UNL1       -0.3794
      8 O          16.3076   68.1690   -5.1938 O.3     1  UNL1       -0.3779
      9 C          16.8535   69.8471   -3.5210 C.3     1  UNL1        0.1713
     10 C          17.0873   69.3140   -4.9186 C.3     1  UNL1        0.1895
     11 C          17.3049   71.2952   -3.6527 C.3     1  UNL1        0.1764
     12 C          16.7013   70.5050   -5.7791 C.3     1  UNL1        0.2383
     13 H          15.1467   68.9316   -3.1298 H       1  UNL1        0.2105
     14 H          16.5919   67.4389   -4.6210 H       1  UNL1        0.2106
     15 O          15.5076   70.7163   -8.3300 O.2     1  UNL1       -0.2464
     16 O          19.5994   70.6606  -10.4508 O.2     1  UNL1       -0.2670
     17 N          17.4311   70.5478   -7.0146 N.ar    1  UNL1       -0.2551
     18 N          17.5467   70.6873   -9.3839 N.ar    1  UNL1       -0.2743
     19 C          16.7354   70.6548   -8.2420 C.ar    1  UNL1        0.3323
     20 C          18.8193   70.4858   -7.0027 C.ar    1  UNL1        0.0869
     21 C          19.5790   70.5180   -8.0993 C.ar    1  UNL1        0.0795
     22 C          18.9303   70.6279   -9.4224 C.ar    1  UNL1        0.2626
     23 H          17.0848   70.7595  -10.2504 H       1  UNL1        0.1734
     24 O          19.4914   72.9869    0.0123 O.3     1  UNL1       -0.2703
     25 P          20.2029   73.9982    1.0538 P.3     1  UNL1        0.2208
     26 O          19.3676   73.7688    2.4213 O.co2   1  UNL1       -0.4371
     27 O          20.2512   75.4256    0.5908 O.2     1  UNL1       -0.5170
     28 O          21.6466   73.3390    1.3430 O.3     1  UNL1       -0.2858
     29 O          22.8171   71.6601    2.5348 O.3     1  UNL1       -0.3226
     30 O          24.4754   75.1082    4.0931 O.3     1  UNL1       -0.3794
     31 O          21.5975   74.9301    3.6238 O.3     1  UNL1       -0.3775
     32 O          25.9637   73.5120    2.1727 O.3     1  UNL1       -0.3792
     33 C          23.8755   74.2888    3.0898 C.3     1  UNL1        0.1718
     34 C          22.4961   73.8287    3.5621 C.3     1  UNL1        0.1968
     35 C          24.7880   73.0826    2.8565 C.3     1  UNL1        0.1723
     36 C          21.9211   72.7688    2.6214 C.3     1  UNL1        0.2706
     37 C          24.0959   72.0153    2.0136 C.3     1  UNL1        0.1830
     38 H          23.9130   75.8813    4.2582 H       1  UNL1        0.2105
     39 H          21.9562   75.6066    4.2188 H       1  UNL1        0.2106
     40 H          26.4136   74.1916    2.6986 H       1  UNL1        0.2106
     41 O          25.5836   70.5544    0.9395 O.co2   1  UNL1       -0.5466
     42 O          24.8166   69.9321    2.9946 O.co2   1  UNL1       -0.5466
     43 C          24.8495   70.7263    2.0666 C.2     1  UNL1        0.0799
@<TRIPOS>UNITY_ATOM_ATTR
2 1
charge -1
26 1
charge -1
41 1
charge -1
@<TRIPOS>BOND
     1     1     4    1
     2     1    24    1
     3     1     2    1
     4     1     3    2
     5    25    28    1
     6    25    24    1
     7    25    26    1
     8    25    27    2
     9     6    11    1
    10     6    12    1
    11    29    36    1
    12    29    37    1
    13     7     9    1
    14     7    13    1
    15     8    10    1
    16     8    14    1
    17     4     5    1
    18    28    36    1
    19    30    33    1
    20    30    38    1
    21    31    34    1
    22    31    39    1
    23    32    35    1
    24    32    40    1
    25    41    43   ar
    26    15    19    2
    27    42    43   ar
    28    16    22    2
    29    17    12    1
    30    17    19   ar
    31    17    20   ar
    32    18    19   ar
    33    18    22   ar
    34    18    23    1
    35     9    10    1
    36     9    11    1
    37    10    12    1
    38    11     5    1
    39    33    34    1
    40    33    35    1
    41    34    36    1
    42    35    37    1
    43    37    43    1
    44    20    21   ar
    45    21    22   ar
@<TRIPOS>MOLECULE
*****
 43 45 0 0 0
SMALL
GASTEIGER

@<TRIPOS>ATOM
      1 P          21.9254   72.4948   -5.7664 P.3     1  UNL1        0.2189
      2 O          21.2546   73.9201   -5.3953 O.co2   1  UNL1       -0.4371
      3 O          23.1297   72.5744   -6.6581 O.2     1  UNL1       -0.5170
      4 O          20.6884   71.6190   -6.3328 O.3     1  UNL1       -0.3112
      5 C          20.1128   71.9852   -7.5734 C.3     1  UNL1        0.1811
      6 O          18.9057   69.9519   -7.1419 O.3     1  UNL1       -0.3308
      7 O          18.1382   70.0116  -10.0400 O.3     1  UNL1       -0.3794
      8 O          15.8974   70.9621   -8.8105 O.3     1  UNL1       -0.3779
      9 C          18.3046   71.0964   -9.1267 C.3     1  UNL1        0.1713
     10 C          17.1380   71.1541   -8.1634 C.3     1  UNL1        0.1895
     11 C          19.4653   70.7577   -8.2015 C.3     1  UNL1        0.1764
     12 C          17.4725   70.0320   -7.1954 C.3     1  UNL1        0.2383
     13 H          17.4018   70.2050  -10.6417 H       1  UNL1        0.2105
     14 H          15.7303   71.7025   -9.4154 H       1  UNL1        0.2106
     15 O          16.3122   68.0635   -5.5356 O.2     1  UNL1       -0.2464
     16 O          15.5748   71.0966   -2.1444 O.2     1  UNL1       -0.2670
     17 N          16.9690   70.2799   -5.8741 N.ar    1  UNL1       -0.2551
     18 N          15.9451   69.5762   -3.8486 N.ar    1  UNL1       -0.2743
     19 C          16.4051   69.2213   -5.1235 C.ar    1  UNL1        0.3323
     20 C          17.0379   71.5584   -5.3342 C.ar    1  UNL1        0.0869
     21 C          16.5954   71.8814   -4.1174 C.ar    1  UNL1        0.0795
     22 C          15.9913   70.8336   -3.2685 C.ar    1  UNL1        0.2626
     23 H          15.5466   68.8564   -3.3079 H       1  UNL1        0.1734
     24 O          22.2033   71.8361   -4.3167 O.3     1  UNL1       -0.2703
     25 P          23.4847   71.9315   -3.3356 P.3     1  UNL1        0.2208
     26 O          24.3785   73.1020   -4.0073 O.co2   1  UNL1       -0.4371
     27 O          24.2112   70.6318   -3.1434 O.2     1  UNL1       -0.5170
     28 O          22.9119   72.5855   -1.9767 O.3     1  UNL1       -0.2858
     29 O          23.0733   71.0763   -0.1586 O.3     1  UNL1       -0.3226
     30 O          21.0317   74.2355    1.5500 O.3     1  UNL1       -0.3794
     31 O          20.3629   73.3236   -1.1436 O.3     1  UNL1       -0.3775
     32 O          23.8499   73.8309    2.1373 O.3     1  UNL1       -0.3792
     33 C          21.9581   73.6105    0.6617 C.3     1  UNL1        0.1718
     34 C          21.2156   72.6265   -0.2427 C.3     1  UNL1        0.1968
     35 C          23.0003   72.8744    1.5066 C.3     1  UNL1        0.1723
     36 C          22.1982   71.7734   -1.0462 C.3     1  UNL1        0.2706
     37 C          23.8594   71.9490    0.6497 C.3     1  UNL1        0.1830
     38 H          20.3596   74.7096    1.0354 H       1  UNL1        0.2105
     39 H          19.7369   73.8672   -0.6406 H       1  UNL1        0.2106
     40 H          23.3153   74.4262    2.6857 H       1  UNL1        0.2106
     41 O          24.0390   70.8482    2.7131 O.co2   1  UNL1       -0.5466
     42 O          25.6692   70.4412    1.1717 O.co2   1  UNL1       -0.5466
     43 C          24.6372   71.0034    1.5060 C.2     1  UNL1        0.0799
@<TRIPOS>UNITY_ATOM_ATTR
2 1
charge -1
26 1
charge -1
41 1
charge -1
@<TRIPOS>BOND
     1     1     4    1
     2     1    24    1
     3     1     2    1
     4     1     3    2
     5    25    28    1
     6    25    24    1
     7    25    26    1
     8    25    27    2
     9     6    11    1
    10     6    12    1
    11    29    36    1
    12    29    37    1
    13     7     9    1
    14     7    13    1
    15     8    10    1
    16     8    14    1
    17     4     5    1
    18    28    36    1
    19    30    33    1
    20    30    38    1
    21    31    34    1
    22    31    39    1
    23    32    35    1
    24    32    40    1
    25    41    43   ar
    26    15    19    2
    27    42    43   ar
    28    16    22    2
    29    17    12    1
    30    17    19   ar
    31    17    20   ar
    32    18    19   ar
    33    18    22   ar
    34    18    23    1
    35     9    10    1
    36     9    11    1
    37    10    12    1
    38    11     5    1
    39    33    34    1
    40    33    35    1
    41    34    36    1
    42    35    37    1
    43    37    43    1
    44    20    21   ar
    45    21    22   ar
@<TRIPOS>MOLECULE
*****
 43 45 0 0 0
SMALL
GASTEIGER

@<TRIPOS>ATOM
      1 P          15.6701   71.7448   -1.9612 P.3     1  UNL1        0.2189
      2 O          16.7864   72.7296   -1.3264 O.co2   1  UNL1       -0.4371
      3 O          15.0995   72.1964   -3.2736 O.2     1  UNL1       -0.5170
      4 O          14.6020   71.5444   -0.7625 O.3     1  UNL1       -0.3112
      5 C          14.4044   70.2419   -0.2438 C.3     1  UNL1        0.1811
      6 O          13.0330   68.2755   -0.4174 O.3     1  UNL1       -0.3308
      7 O          10.9008   70.0848   -1.5001 O.3     1  UNL1       -0.3794
      8 O          10.1257   69.7342    1.0907 O.3     1  UNL1       -0.3779
      9 C          11.8739   70.3401   -0.4869 C.3     1  UNL1        0.1713
     10 C          11.5011   69.6194    0.7913 C.3     1  UNL1        0.1895
     11 C          13.1633   69.6354   -0.8857 C.3     1  UNL1        0.1764
     12 C          11.9146   68.1911    0.4801 C.3     1  UNL1        0.2383
     13 H          10.0680   70.5251   -1.2674 H       1  UNL1        0.2105
     14 H           9.9127   70.6616    1.2816 H       1  UNL1        0.2106
     15 O          12.0336   65.3747    0.6539 O.2     1  UNL1       -0.2464
     16 O          13.4534   65.5227    5.0363 O.2     1  UNL1       -0.2670
     17 N          12.3121   67.4674    1.6545 N.ar    1  UNL1       -0.2551
     18 N          12.7396   65.4511    2.8367 N.ar    1  UNL1       -0.2743
     19 C          12.3376   66.0528    1.6370 C.ar    1  UNL1        0.3323
     20 C          12.6725   68.1575    2.8055 C.ar    1  UNL1        0.0869
     21 C          13.0537   67.5700    3.9415 C.ar    1  UNL1        0.0795
     22 C          13.1067   66.0948    4.0074 C.ar    1  UNL1        0.2626
     23 H          12.7633   64.4669    2.8495 H       1  UNL1        0.1734
     24 O          16.4306   70.3194   -2.0124 O.3     1  UNL1       -0.2703
     25 P          17.8615   69.9017   -2.6384 P.3     1  UNL1        0.2208
     26 O          17.6413   68.3559   -3.0654 O.co2   1  UNL1       -0.4371
     27 O          19.0261   70.1293   -1.7186 O.2     1  UNL1       -0.5170
     28 O          17.9461   70.7022   -4.0364 O.3     1  UNL1       -0.2858
     29 O          18.0685   69.9564   -6.2809 O.3     1  UNL1       -0.3226
     30 O          20.4333   73.3421   -6.3900 O.3     1  UNL1       -0.3794
     31 O          20.6139   71.4815   -4.1451 O.3     1  UNL1       -0.3775
     32 O          17.7497   73.4001   -7.5061 O.3     1  UNL1       -0.3792
     33 C          19.3567   72.5184   -5.9424 C.3     1  UNL1        0.1718
     34 C          19.9143   71.2210   -5.3565 C.3     1  UNL1        0.1968
     35 C          18.4601   72.2170   -7.1454 C.3     1  UNL1        0.1723
     36 C          18.7924   70.2197   -5.0784 C.3     1  UNL1        0.2706
     37 C          17.4493   71.1195   -6.8257 C.3     1  UNL1        0.1830
     38 H          21.0167   73.5467   -5.6423 H       1  UNL1        0.2105
     39 H          21.3271   72.1163   -4.3142 H       1  UNL1        0.2106
     40 H          18.3816   74.1066   -7.7119 H       1  UNL1        0.2106
     41 O          17.7330   70.0166   -8.8762 O.co2   1  UNL1       -0.5466
     42 O          15.6228   70.6975   -8.3447 O.co2   1  UNL1       -0.5466
     43 C          16.8111   70.6058   -8.0751 C.2     1  UNL1        0.0799
@<TRIPOS>UNITY_ATOM_ATTR
2 1
charge -1
26 1
charge -1
41 1
charge -1
@<TRIPOS>BOND
     1     1     4    1
     2     1    24    1
     3     1     2    1
     4     1     3    2
     5    25    28    1
     6    25    24    1
     7    25    26    1
     8    25    27    2
     9     6    11    1
    10     6    12    1
    11    29    36    1
    12    29    37    1
    13     7     9    1
    14     7    13    1
    15     8    10    1
    16     8    14    1
    17     4     5    1
    18    28    36    1
    19    30    33    1
    20    30    38    1
    21    31    34    1
    22    31    39    1
    23    32    35    1
    24    32    40    1
    25    41    43   ar
    26    15    19    2
    27    42    43   ar
    28    16    22    2
    29    17    12    1
    30    17    19   ar
    31    17    20   ar
    32    18    19   ar
    33    18    22   ar
    34    18    23    1
    35     9    10    1
    36     9    11    1
    37    10    12    1
    38    11     5    1
    39    33    34    1
    40    33    35    1
    41    34    36    1
    42    35    37    1
    43    37    43    1
    44    20    21   ar
    45    21    22   ar
@<TRIPOS>MOLECULE
*****
 43 45 0 0 0
SMALL
GASTEIGER

@<TRIPOS>ATOM
      1 P          20.5329   71.3844   -1.8521 P.3     1  UNL1        0.2189
      2 O          20.6541   72.9970   -1.9117 O.co2   1  UNL1       -0.4371
      3 O          21.5955   70.6409   -2.6072 O.2     1  UNL1       -0.5170
      4 O          19.0094   71.0919   -2.3119 O.3     1  UNL1       -0.3112
      5 C          18.5697   71.6007   -3.5578 C.3     1  UNL1        0.1811
      6 O          16.7905   71.4526   -5.1672 O.3     1  UNL1       -0.3308
      7 O          15.5534   69.4256   -3.3362 O.3     1  UNL1       -0.3794
      8 O          16.6941   67.8699   -5.2636 O.3     1  UNL1       -0.3779
      9 C          16.9315   69.6556   -3.6304 C.3     1  UNL1        0.1713
     10 C          17.2660   69.1367   -5.0128 C.3     1  UNL1        0.1895
     11 C          17.1325   71.1557   -3.7960 C.3     1  UNL1        0.1764
     12 C          16.6925   70.2242   -5.9052 C.3     1  UNL1        0.2383
     13 H          15.4004   68.4737   -3.2261 H       1  UNL1        0.2105
     14 H          17.0921   67.2124   -4.6709 H       1  UNL1        0.2106
     15 O          15.4864   70.6076   -8.4301 O.2     1  UNL1       -0.2464
     16 O          19.5696   70.7348  -10.5645 O.2     1  UNL1       -0.2670
     17 N          17.4167   70.3606   -7.1372 N.ar    1  UNL1       -0.2551
     18 N          17.5212   70.6696   -9.4909 N.ar    1  UNL1       -0.2743
     19 C          16.7150   70.5495   -8.3513 C.ar    1  UNL1        0.3323
     20 C          18.8053   70.3086   -7.1348 C.ar    1  UNL1        0.0869
     21 C          19.5601   70.4248   -8.2292 C.ar    1  UNL1        0.0795
     22 C          18.9051   70.6237   -9.5387 C.ar    1  UNL1        0.2626
     23 H          17.0551   70.7997  -10.3483 H       1  UNL1        0.1734
     24 O          20.4980   71.0814   -0.2647 O.3     1  UNL1       -0.2703
     25 P          21.4768   71.5611    0.9292 P.3     1  UNL1        0.2208
     26 O          22.5269   70.3362    1.0612 O.co2   1  UNL1       -0.4371
     27 O          20.7669   71.9074    2.2059 O.2     1  UNL1       -0.5170
     28 O          22.3373   72.7683    0.2929 O.3     1  UNL1       -0.2858
     29 O          24.0624   72.5306   -1.3123 O.3     1  UNL1       -0.3226
     30 O          25.1115   76.0762    0.5306 O.3     1  UNL1       -0.3794
     31 O          24.1667   73.8085    2.1116 O.3     1  UNL1       -0.3775
     32 O          23.8957   76.1081   -2.1097 O.3     1  UNL1       -0.3792
     33 C          24.2175   75.0756    0.0432 C.3     1  UNL1        0.1718
     34 C          24.5144   73.7440    0.7333 C.3     1  UNL1        0.1968
     35 C          24.4263   74.9503   -1.4676 C.3     1  UNL1        0.1723
     36 C          23.7374   72.6022    0.0765 C.3     1  UNL1        0.2706
     37 C          23.7229   73.7170   -2.0268 C.3     1  UNL1        0.1830
     38 H          24.9969   76.1733    1.4891 H       1  UNL1        0.2105
     39 H          24.6559   74.5311    2.5346 H       1  UNL1        0.2106
     40 H          24.3349   76.9003   -1.7626 H       1  UNL1        0.2106
     41 O          24.7070   74.5338   -3.9930 O.co2   1  UNL1       -0.5466
     42 O          24.1331   72.3274   -3.9561 O.co2   1  UNL1       -0.5466
     43 C          24.1946   73.4202   -3.4131 C.2     1  UNL1        0.0799
@<TRIPOS>UNITY_ATOM_ATTR
2 1
charge -1
26 1
charge -1
41 1
charge -1
@<TRIPOS>BOND
     1     1     4    1
     2     1    24    1
     3     1     2    1
     4     1     3    2
     5    25    28    1
     6    25    24    1
     7    25    26    1
     8    25    27    2
     9     6    11    1
    10     6    12    1
    11    29    36    1
    12    29    37    1
    13     7     9    1
    14     7    13    1
    15     8    10    1
    16     8    14    1
    17     4     5    1
    18    28    36    1
    19    30    33    1
    20    30    38    1
    21    31    34    1
    22    31    39    1
    23    32    35    1
    24    32    40    1
    25    41    43   ar
    26    15    19    2
    27    42    43   ar
    28    16    22    2
    29    17    12    1
    30    17    19   ar
    31    17    20   ar
    32    18    19   ar
    33    18    22   ar
    34    18    23    1
    35     9    10    1
    36     9    11    1
    37    10    12    1
    38    11     5    1
    39    33    34    1
    40    33    35    1
    41    34    36    1
    42    35    37    1
    43    37    43    1
    44    20    21   ar
    45    21    22   ar
@<TRIPOS>MOLECULE
*****
 43 45 0 0 0
SMALL
GASTEIGER

@<TRIPOS>ATOM
      1 P          22.5854   73.2083   -4.1216 P.3     1  UNL1        0.2189
      2 O          23.8669   72.3045   -4.5213 O.co2   1  UNL1       -0.4371
      3 O          22.8593   74.6790   -4.0037 O.2     1  UNL1       -0.5170
      4 O          22.0049   72.4928   -2.7916 O.3     1  UNL1       -0.3112
      5 C          21.2154   71.3271   -2.9407 C.3     1  UNL1        0.1811
      6 O          20.5402   70.6795   -0.7266 O.3     1  UNL1       -0.3308
      7 O          18.3699   72.7319   -0.9894 O.3     1  UNL1       -0.3794
      8 O          20.2245   74.0184    0.5408 O.3     1  UNL1       -0.3779
      9 C          19.7106   72.7666   -1.4793 C.3     1  UNL1        0.1713
     10 C          20.6783   73.0132   -0.3414 C.3     1  UNL1        0.1895
     11 C          20.0869   71.3580   -1.9180 C.3     1  UNL1        0.1764
     12 C          20.7469   71.6455    0.3163 C.3     1  UNL1        0.2383
     13 H          18.1069   73.6210   -0.7030 H       1  UNL1        0.2105
     14 H          20.1987   74.8696    0.0752 H       1  UNL1        0.2106
     15 O          21.2910   72.0551    3.0572 O.2     1  UNL1       -0.2464
     16 O          25.6600   70.6650    2.5850 O.2     1  UNL1       -0.2670
     17 N          22.0180   71.3986    0.9361 N.ar    1  UNL1       -0.2551
     18 N          23.4668   71.3633    2.8192 N.ar    1  UNL1       -0.2743
     19 C          22.1864   71.6372    2.3206 C.ar    1  UNL1        0.3323
     20 C          23.0800   70.9244    0.1757 C.ar    1  UNL1        0.0869
     21 C          24.2947   70.6679    0.6652 C.ar    1  UNL1        0.0795
     22 C          24.5545   70.8913    2.1025 C.ar    1  UNL1        0.2626
     23 H          23.6088   71.5237    3.7802 H       1  UNL1        0.1734
     24 O          21.4974   72.8144   -5.2504 O.3     1  UNL1       -0.2703
     25 P          20.3991   73.7128   -6.0253 P.3     1  UNL1        0.2208
     26 O          21.2032   74.2371   -7.3286 O.co2   1  UNL1       -0.4371
     27 O          19.7963   74.8048   -5.1898 O.2     1  UNL1       -0.5170
     28 O          19.3346   72.6481   -6.6047 O.3     1  UNL1       -0.2858
     29 O          18.8997   70.4344   -5.8840 O.3     1  UNL1       -0.3226
     30 O          18.0365   70.1903   -9.9167 O.3     1  UNL1       -0.3794
     31 O          20.3783   71.6711   -8.9906 O.3     1  UNL1       -0.3775
     32 O          15.8827   70.2847   -7.9666 O.3     1  UNL1       -0.3792
     33 C          18.1324   70.8229   -8.6405 C.3     1  UNL1        0.1718
     34 C          19.5882   70.8150   -8.1736 C.3     1  UNL1        0.1968
     35 C          17.2544   70.0432   -7.6591 C.3     1  UNL1        0.1723
     36 C          19.6986   71.2736   -6.7188 C.3     1  UNL1        0.2706
     37 C          17.5140   70.4717   -6.2178 C.3     1  UNL1        0.1830
     38 H          18.5865   70.6686  -10.5570 H       1  UNL1        0.2105
     39 H          20.3127   71.3860   -9.9151 H       1  UNL1        0.2106
     40 H          15.7043   70.0163   -8.8814 H       1  UNL1        0.2106
     41 O          16.9960   69.9635   -3.9873 O.co2   1  UNL1       -0.5466
     42 O          16.4076   68.4286   -5.5675 O.co2   1  UNL1       -0.5466
     43 C          16.9114   69.4979   -5.2581 C.2     1  UNL1        0.0799
@<TRIPOS>UNITY_ATOM_ATTR
2 1
charge -1
26 1
charge -1
41 1
charge -1
@<TRIPOS>BOND
     1     1     4    1
     2     1    24    1
     3     1     2    1
     4     1     3    2
     5    25    28    1
     6    25    24    1
     7    25    26    1
     8    25    27    2
     9     6    11    1
    10     6    12    1
    11    29    36    1
    12    29    37    1
    13     7     9    1
    14     7    13    1
    15     8    10    1
    16     8    14    1
    17     4     5    1
    18    28    36    1
    19    30    33    1
    20    30    38    1
    21    31    34    1
    22    31    39    1
    23    32    35    1
    24    32    40    1
    25    41    43   ar
    26    15    19    2
    27    42    43   ar
    28    16    22    2
    29    17    12    1
    30    17    19   ar
    31    17    20   ar
    32    18    19   ar
    33    18    22   ar
    34    18    23    1
    35     9    10    1
    36     9    11    1
    37    10    12    1
    38    11     5    1
    39    33    34    1
    40    33    35    1
    41    34    36    1
    42    35    37    1
    43    37    43    1
    44    20    21   ar
    45    21    22   ar
@<TRIPOS>MOLECULE
*****
 43 45 0 0 0
SMALL
GASTEIGER

@<TRIPOS>ATOM
      1 P          23.4410   72.1911   -3.5205 P.3     1  UNL1        0.2189
      2 O          23.9707   70.7000   -3.1814 O.co2   1  UNL1       -0.4371
      3 O          24.4829   73.1258   -4.0614 O.2     1  UNL1       -0.5170
      4 O          22.7131   72.6647   -2.1553 O.3     1  UNL1       -0.3112
      5 C          23.4659   72.6758   -0.9564 C.3     1  UNL1        0.1811
      6 O          24.4302   71.0112    0.4849 O.3     1  UNL1       -0.3308
      7 O          21.6145   70.2101    1.1343 O.3     1  UNL1       -0.3794
      8 O          22.3213   71.7108    3.2986 O.3     1  UNL1       -0.3779
      9 C          22.1488   71.5098    0.8816 C.3     1  UNL1        0.1713
     10 C          22.9604   71.9828    2.0689 C.3     1  UNL1        0.1895
     11 C          23.2127   71.3782   -0.1996 C.3     1  UNL1        0.1764
     12 C          24.2536   71.2042    1.8973 C.3     1  UNL1        0.2383
     13 H          20.9324   70.2686    1.8220 H       1  UNL1        0.2105
     14 H          21.5038   72.2304    3.3599 H       1  UNL1        0.2106
     15 O          24.2386   73.9295    2.6384 O.2     1  UNL1       -0.2464
     16 O          28.6747   73.8037    3.8833 O.2     1  UNL1       -0.2670
     17 N          25.3907   71.9089    2.4180 N.ar    1  UNL1       -0.2551
     18 N          26.4483   73.8645    3.2568 N.ar    1  UNL1       -0.2743
     19 C          25.2774   73.2774    2.7594 C.ar    1  UNL1        0.3323
     20 C          26.5999   71.2455    2.5873 C.ar    1  UNL1        0.0869
     21 C          27.7074   71.8185    3.0626 C.ar    1  UNL1        0.0795
     22 C          27.6742   73.2461    3.4424 C.ar    1  UNL1        0.2626
     23 H          26.3945   74.8171    3.4995 H       1  UNL1        0.1734
     24 O          22.1992   71.9169   -4.5183 O.3     1  UNL1       -0.2703
     25 P          21.5114   72.8563   -5.6399 P.3     1  UNL1        0.2208
     26 O          22.4122   72.5807   -6.9563 O.co2   1  UNL1       -0.4371
     27 O          21.4087   74.3032   -5.2527 O.2     1  UNL1       -0.5170
     28 O          20.0981   72.1464   -5.9577 O.3     1  UNL1       -0.2858
     29 O          19.3571   69.9611   -5.4244 O.3     1  UNL1       -0.3226
     30 O          17.3577   70.6856   -8.9663 O.3     1  UNL1       -0.3794
     31 O          20.1535   71.4739   -8.6560 O.3     1  UNL1       -0.3775
     32 O          15.9336   70.8101   -6.4350 O.3     1  UNL1       -0.3792
     33 C          17.9617   71.0244   -7.7180 C.3     1  UNL1        0.1718
     34 C          19.4421   70.6434   -7.7456 C.3     1  UNL1        0.1968
     35 C          17.2339   70.2521   -6.6154 C.3     1  UNL1        0.1723
     36 C          20.0675   70.7771   -6.3565 C.3     1  UNL1        0.2706
     37 C          17.9865   70.3306   -5.2903 C.3     1  UNL1        0.1830
     38 H          17.8040   71.1647   -9.6823 H       1  UNL1        0.2105
     39 H          19.7619   71.3942   -9.5395 H       1  UNL1        0.2106
     40 H          15.4441   70.7663   -7.2713 H       1  UNL1        0.2106
     41 O          16.6212   68.4559   -4.9399 O.co2   1  UNL1       -0.5466
     42 O          17.7442   69.2770   -3.1333 O.co2   1  UNL1       -0.5466
     43 C          17.4605   69.3227   -4.3209 C.2     1  UNL1        0.0799
@<TRIPOS>UNITY_ATOM_ATTR
2 1
charge -1
26 1
charge -1
41 1
charge -1
@<TRIPOS>BOND
     1     1     4    1
     2     1    24    1
     3     1     2    1
     4     1     3    2
     5    25    28    1
     6    25    24    1
     7    25    26    1
     8    25    27    2
     9     6    11    1
    10     6    12    1
    11    29    36    1
    12    29    37    1
    13     7     9    1
    14     7    13    1
    15     8    10    1
    16     8    14    1
    17     4     5    1
    18    28    36    1
    19    30    33    1
    20    30    38    1
    21    31    34    1
    22    31    39    1
    23    32    35    1
    24    32    40    1
    25    41    43   ar
    26    15    19    2
    27    42    43   ar
    28    16    22    2
    29    17    12    1
    30    17    19   ar
    31    17    20   ar
    32    18    19   ar
    33    18    22   ar
    34    18    23    1
    35     9    10    1
    36     9    11    1
    37    10    12    1
    38    11     5    1
    39    33    34    1
    40    33    35    1
    41    34    36    1
    42    35    37    1
    43    37    43    1
    44    20    21   ar
    45    21    22   ar
@<TRIPOS>MOLECULE
*****
 43 45 0 0 0
SMALL
GASTEIGER

@<TRIPOS>ATOM
      1 P          20.2717   71.8758   -1.3919 P.3     1  UNL1        0.2189
      2 O          21.7716   72.1918   -1.9108 O.co2   1  UNL1       -0.4371
      3 O          19.9477   70.4185   -1.2400 O.2     1  UNL1       -0.5170
      4 O          19.3257   72.7034   -2.4108 O.3     1  UNL1       -0.3112
      5 C          19.0161   72.1261   -3.6660 C.3     1  UNL1        0.1811
      6 O          17.2037   72.3650   -5.2267 O.3     1  UNL1       -0.3308
      7 O          15.5143   70.9447   -3.1969 O.3     1  UNL1       -0.3794
      8 O          16.0790   68.9690   -4.9896 O.3     1  UNL1       -0.3779
      9 C          16.8869   70.7400   -3.5326 C.3     1  UNL1        0.1713
     10 C          17.0004   70.0321   -4.8661 C.3     1  UNL1        0.1895
     11 C          17.5030   72.0982   -3.8394 C.3     1  UNL1        0.1764
     12 C          16.7266   71.1601   -5.8463 C.3     1  UNL1        0.2383
     13 H          15.0993   70.0907   -2.9968 H       1  UNL1        0.2105
     14 H          16.2959   68.2766   -4.3449 H       1  UNL1        0.2106
     15 O          15.4405   70.5740   -8.2915 O.2     1  UNL1       -0.2464
     16 O          19.4393   70.4776  -10.5816 O.2     1  UNL1       -0.2670
     17 N          17.4074   70.9768   -7.0967 N.ar    1  UNL1       -0.2551
     18 N          17.4334   70.5255   -9.4295 N.ar    1  UNL1       -0.2743
     19 C          16.6677   70.6852   -8.2671 C.ar    1  UNL1        0.3323
     20 C          18.7913   71.0877   -7.1557 C.ar    1  UNL1        0.0869
     21 C          19.5073   70.9328   -8.2711 C.ar    1  UNL1        0.0795
     22 C          18.8111   70.6256   -9.5377 C.ar    1  UNL1        0.2626
     23 H          16.9407   70.3200  -10.2567 H       1  UNL1        0.1734
     24 O          20.1721   72.7337   -0.0256 O.3     1  UNL1       -0.2703
     25 P          21.2101   72.8972    1.2031 P.3     1  UNL1        0.2208
     26 O          22.1248   71.5662    1.0941 O.co2   1  UNL1       -0.4371
     27 O          20.5557   73.0900    2.5405 O.2     1  UNL1       -0.5170
     28 O          22.1872   74.1005    0.7561 O.3     1  UNL1       -0.2858
     29 O          23.4919   74.9292    2.5506 O.3     1  UNL1       -0.3226
     30 O          23.9941   70.8489    2.9601 O.3     1  UNL1       -0.3794
     31 O          24.0594   72.0911    0.3168 O.3     1  UNL1       -0.3775
     32 O          22.2300   72.2906    4.7659 O.3     1  UNL1       -0.3792
     33 C          23.2992   72.0488    2.6203 C.3     1  UNL1        0.1718
     34 C          24.0808   72.8063    1.5467 C.3     1  UNL1        0.1968
     35 C          23.1750   72.8983    3.8872 C.3     1  UNL1        0.1723
     36 C          23.4925   74.2000    1.3226 C.3     1  UNL1        0.2706
     37 C          22.7021   74.3129    3.5652 C.3     1  UNL1        0.1830
     38 H          24.0850   70.2930    2.1702 H       1  UNL1        0.2105
     39 H          24.4311   71.2056    0.4517 H       1  UNL1        0.2106
     40 H          22.5192   71.3895    4.9786 H       1  UNL1        0.2106
     41 O          23.7219   74.6463    5.6510 O.co2   1  UNL1       -0.5466
     42 O          22.3904   76.3219    4.8645 O.co2   1  UNL1       -0.5466
     43 C          22.8975   75.2175    4.7382 C.2     1  UNL1        0.0799
@<TRIPOS>UNITY_ATOM_ATTR
2 1
charge -1
26 1
charge -1
41 1
charge -1
@<TRIPOS>BOND
     1     1     4    1
     2     1    24    1
     3     1     2    1
     4     1     3    2
     5    25    28    1
     6    25    24    1
     7    25    26    1
     8    25    27    2
     9     6    11    1
    10     6    12    1
    11    29    36    1
    12    29    37    1
    13     7     9    1
    14     7    13    1
    15     8    10    1
    16     8    14    1
    17     4     5    1
    18    28    36    1
    19    30    33    1
    20    30    38    1
    21    31    34    1
    22    31    39    1
    23    32    35    1
    24    32    40    1
    25    41    43   ar
    26    15    19    2
    27    42    43   ar
    28    16    22    2
    29    17    12    1
    30    17    19   ar
    31    17    20   ar
    32    18    19   ar
    33    18    22   ar
    34    18    23    1
    35     9    10    1
    36     9    11    1
    37    10    12    1
    38    11     5    1
    39    33    34    1
    40    33    35    1
    41    34    36    1
    42    35    37    1
    43    37    43    1
    44    20    21   ar
    45    21    22   ar
@<TRIPOS>MOLECULE
*****
 43 45 0 0 0
SMALL
GASTEIGER

@<TRIPOS>ATOM
      1 P          20.2662   71.4363   -0.8570 P.3     1  UNL1        0.2189
      2 O          20.9124   70.6149    0.3785 O.co2   1  UNL1       -0.4371
      3 O          19.3807   72.5817   -0.4622 O.2     1  UNL1       -0.5170
      4 O          19.5708   70.2908   -1.7637 O.3     1  UNL1       -0.3112
      5 C          19.2822   70.5834   -3.1186 C.3     1  UNL1        0.1811
      6 O          17.5747   71.5311   -4.5200 O.3     1  UNL1       -0.3308
      7 O          15.6203   69.9347   -2.9003 O.3     1  UNL1       -0.3794
      8 O          15.8831   68.4361   -5.1634 O.3     1  UNL1       -0.3779
      9 C          16.9457   69.5951   -3.3087 C.3     1  UNL1        0.1713
     10 C          16.9688   69.2558   -4.7840 C.3     1  UNL1        0.1895
     11 C          17.7910   70.8605   -3.2595 C.3     1  UNL1        0.1764
     12 C          16.9144   70.6321   -5.4250 C.3     1  UNL1        0.2383
     13 H          15.0613   69.1418   -2.9237 H       1  UNL1        0.2105
     14 H          15.9636   67.5717   -4.7295 H       1  UNL1        0.2106
     15 O          19.7032   70.3458   -5.7671 O.2     1  UNL1       -0.2464
     16 O          19.3733   70.8028  -10.3416 O.2     1  UNL1       -0.2670
     17 N          17.5838   70.6722   -6.6944 N.ar    1  UNL1       -0.2551
     18 N          19.5363   70.5747   -8.0450 N.ar    1  UNL1       -0.2743
     19 C          18.9889   70.5180   -6.7565 C.ar    1  UNL1        0.3323
     20 C          16.8504   70.8606   -7.8596 C.ar    1  UNL1        0.0869
     21 C          17.3863   70.9123   -9.0806 C.ar    1  UNL1        0.0795
     22 C          18.8482   70.7608   -9.2331 C.ar    1  UNL1        0.2626
     23 H          20.5131   70.4719   -8.1134 H       1  UNL1        0.1734
     24 O          21.5601   71.8555   -1.7304 O.3     1  UNL1       -0.2703
     25 P          23.0825   72.1718   -1.2877 P.3     1  UNL1        0.2208
     26 O          23.4857   73.4303   -2.2225 O.co2   1  UNL1       -0.4371
     27 O          24.0119   70.9978   -1.3965 O.2     1  UNL1       -0.5170
     28 O          22.9568   72.7909    0.1967 O.3     1  UNL1       -0.2858
     29 O          24.6244   73.9604    1.4053 O.3     1  UNL1       -0.3226
     30 O          22.3880   72.2960    4.4543 O.3     1  UNL1       -0.3794
     31 O          23.0337   70.7363    2.0699 O.3     1  UNL1       -0.3775
     32 O          22.1329   75.1246    3.8341 O.3     1  UNL1       -0.3792
     33 C          22.6143   72.8613    3.1630 C.3     1  UNL1        0.1718
     34 C          23.6120   71.9956    2.3931 C.3     1  UNL1        0.1968
     35 C          23.1724   74.2730    3.3561 C.3     1  UNL1        0.1723
     36 C          24.0539   72.6867    1.1024 C.3     1  UNL1        0.2706
     37 C          23.7074   74.8445    2.0462 C.3     1  UNL1        0.1830
     38 H          22.0331   71.3983    4.3568 H       1  UNL1        0.2105
     39 H          22.7508   70.2924    2.8843 H       1  UNL1        0.2106
     40 H          21.7836   74.7720    4.6675 H       1  UNL1        0.2106
     41 O          25.8459   75.8080    2.0577 O.co2   1  UNL1       -0.5466
     42 O          24.1004   77.1428    2.6665 O.co2   1  UNL1       -0.5466
     43 C          24.5357   76.0622    2.2977 C.2     1  UNL1        0.0799
@<TRIPOS>UNITY_ATOM_ATTR
2 1
charge -1
26 1
charge -1
41 1
charge -1
@<TRIPOS>BOND
     1     1     4    1
     2     1    24    1
     3     1     2    1
     4     1     3    2
     5    25    28    1
     6    25    24    1
     7    25    26    1
     8    25    27    2
     9     6    11    1
    10     6    12    1
    11    29    36    1
    12    29    37    1
    13     7     9    1
    14     7    13    1
    15     8    10    1
    16     8    14    1
    17     4     5    1
    18    28    36    1
    19    30    33    1
    20    30    38    1
    21    31    34    1
    22    31    39    1
    23    32    35    1
    24    32    40    1
    25    41    43   ar
    26    15    19    2
    27    42    43   ar
    28    16    22    2
    29    17    12    1
    30    17    19   ar
    31    17    20   ar
    32    18    19   ar
    33    18    22   ar
    34    18    23    1
    35     9    10    1
    36     9    11    1
    37    10    12    1
    38    11     5    1
    39    33    34    1
    40    33    35    1
    41    34    36    1
    42    35    37    1
    43    37    43    1
    44    20    21   ar
    45    21    22   ar
@<TRIPOS>MOLECULE
*****
 43 45 0 0 0
SMALL
GASTEIGER

@<TRIPOS>ATOM
      1 P          23.0242   73.3975   -4.2606 P.3     1  UNL1        0.2189
      2 O          24.1179   72.2080   -4.1718 O.co2   1  UNL1       -0.4371
      3 O          23.5623   74.7197   -4.7232 O.2     1  UNL1       -0.5170
      4 O          22.3276   73.3945   -2.8002 O.3     1  UNL1       -0.3112
      5 C          21.4397   74.4475   -2.4725 C.3     1  UNL1        0.1811
      6 O          20.7418   72.6580   -1.0274 O.3     1  UNL1       -0.3308
      7 O          18.5442   74.4896   -0.1290 O.3     1  UNL1       -0.3794
      8 O          20.3557   74.6929    1.8991 O.3     1  UNL1       -0.3779
      9 C          19.8912   74.8012   -0.4852 C.3     1  UNL1        0.1713
     10 C          20.8380   74.3651    0.6128 C.3     1  UNL1        0.1895
     11 C          20.2958   73.8895   -1.6355 C.3     1  UNL1        0.1764
     12 C          20.9180   72.8655    0.3830 C.3     1  UNL1        0.2383
     13 H          18.2632   75.0596    0.6044 H       1  UNL1        0.2105
     14 H          20.3236   75.6581    1.9960 H       1  UNL1        0.2106
     15 O          21.3649   70.1352    0.9505 O.2     1  UNL1       -0.2464
     16 O          25.8141   70.8730    1.9016 O.2     1  UNL1       -0.2670
     17 N          22.1835   72.3169    0.7812 N.ar    1  UNL1       -0.2551
     18 N          23.5802   70.5054    1.4246 N.ar    1  UNL1       -0.2743
     19 C          22.3011   70.9313    1.0430 C.ar    1  UNL1        0.3323
     20 C          23.2906   73.1471    0.9070 C.ar    1  UNL1        0.0869
     21 C          24.5034   72.7265    1.2717 C.ar    1  UNL1        0.0795
     22 C          24.7114   71.2931    1.5642 C.ar    1  UNL1        0.2626
     23 H          23.6863   69.5451    1.6142 H       1  UNL1        0.1734
     24 O          21.8787   72.7670   -5.2109 O.3     1  UNL1       -0.2703
     25 P          21.0729   73.3970   -6.4629 P.3     1  UNL1        0.2208
     26 O          22.0241   73.0518   -7.7264 O.co2   1  UNL1       -0.4371
     27 O          20.7467   74.8549   -6.3145 O.2     1  UNL1       -0.5170
     28 O          19.7881   72.4388   -6.6467 O.3     1  UNL1       -0.2858
     29 O          19.3141   70.2708   -5.8196 O.3     1  UNL1       -0.3226
     30 O          17.4908   70.1739   -9.5256 O.3     1  UNL1       -0.3794
     31 O          20.1251   71.3949   -9.2026 O.3     1  UNL1       -0.3775
     32 O          15.8874   70.4592   -7.1176 O.3     1  UNL1       -0.3792
     33 C          17.9535   70.7750   -8.3162 C.3     1  UNL1        0.1718
     34 C          19.4700   70.6121   -8.2113 C.3     1  UNL1        0.1968
     35 C          17.2607   70.0748   -7.1450 C.3     1  UNL1        0.1723
     36 C          19.9716   71.0361   -6.8302 C.3     1  UNL1        0.2706
     37 C          17.9000   70.4539   -5.8123 C.3     1  UNL1        0.1830
     38 H          17.9177   70.6028  -10.2839 H       1  UNL1        0.2105
     39 H          19.8114   71.1313  -10.0815 H       1  UNL1        0.2106
     40 H          15.4688   70.2236   -7.9603 H       1  UNL1        0.2106
     41 O          16.7165   68.5120   -5.2377 O.co2   1  UNL1       -0.5466
     42 O          17.7004   69.6715   -3.5386 O.co2   1  UNL1       -0.5466
     43 C          17.4481   69.5329   -4.7261 C.2     1  UNL1        0.0799
@<TRIPOS>UNITY_ATOM_ATTR
2 1
charge -1
26 1
charge -1
41 1
charge -1
@<TRIPOS>BOND
     1     1     4    1
     2     1    24    1
     3     1     2    1
     4     1     3    2
     5    25    28    1
     6    25    24    1
     7    25    26    1
     8    25    27    2
     9     6    11    1
    10     6    12    1
    11    29    36    1
    12    29    37    1
    13     7     9    1
    14     7    13    1
    15     8    10    1
    16     8    14    1
    17     4     5    1
    18    28    36    1
    19    30    33    1
    20    30    38    1
    21    31    34    1
    22    31    39    1
    23    32    35    1
    24    32    40    1
    25    41    43   ar
    26    15    19    2
    27    42    43   ar
    28    16    22    2
    29    17    12    1
    30    17    19   ar
    31    17    20   ar
    32    18    19   ar
    33    18    22   ar
    34    18    23    1
    35     9    10    1
    36     9    11    1
    37    10    12    1
    38    11     5    1
    39    33    34    1
    40    33    35    1
    41    34    36    1
    42    35    37    1
    43    37    43    1
    44    20    21   ar
    45    21    22   ar
