@<TRIPOS>MOLECULE
*****
 43 45 0 0 0
SMALL
GASTEIGER

@<TRIPOS>ATOM
      1 P          22.7790   71.5319   -2.5090 P.3     1  UNL1        0.2189
      2 O          22.3239   72.8165   -3.3817 O.co2   1  UNL1       -0.4371
      3 O          24.0963   70.9317   -2.9046 O.2     1  UNL1       -0.5170
      4 O          21.5036   70.5392   -2.5848 O.3     1  UNL1       -0.3112
      5 C          20.7752   70.4654   -3.7966 C.3     1  UNL1        0.1811
      6 O          18.8688   71.5774   -4.7489 O.3     1  UNL1       -0.3308
      7 O          17.2708   70.3288   -2.5401 O.3     1  UNL1       -0.3794
      8 O          16.7093   68.7167   -4.6665 O.3     1  UNL1       -0.3779
      9 C          18.3786   69.7962   -3.2664 C.3     1  UNL1        0.1713
     10 C          17.9472   69.3965   -4.6615 C.3     1  UNL1        0.1895
     11 C          19.3481   70.9362   -3.5471 C.3     1  UNL1        0.1764
     12 C          17.8795   70.7398   -5.3677 C.3     1  UNL1        0.2383
     13 H          16.6375   69.6188   -2.3491 H       1  UNL1        0.2105
     14 H          16.8047   67.8679   -4.2056 H       1  UNL1        0.2106
     15 O          15.9446   70.2152   -7.3570 O.2     1  UNL1       -0.2464
     16 O          19.0944   70.3652  -10.7185 O.2     1  UNL1       -0.2670
     17 N          18.1665   70.6366   -6.7705 N.ar    1  UNL1       -0.2551
     18 N          17.5154   70.2894   -9.0292 N.ar    1  UNL1       -0.2743
     19 C          17.1219   70.3699   -7.6869 C.ar    1  UNL1        0.3323
     20 C          19.4691   70.8003   -7.2259 C.ar    1  UNL1        0.0869
     21 C          19.8287   70.7208   -8.5085 C.ar    1  UNL1        0.0795
     22 C          18.7978   70.4442   -9.5303 C.ar    1  UNL1        0.2626
     23 H          16.8058   70.1025   -9.6857 H       1  UNL1        0.1734
     24 O          22.7196   72.0847   -0.9913 O.3     1  UNL1       -0.2703
     25 P          22.8176   71.3109    0.4248 P.3     1  UNL1        0.2208
     26 O          24.2978   70.6567    0.3871 O.co2   1  UNL1       -0.4371
     27 O          21.7116   70.3246    0.6655 O.2     1  UNL1       -0.5170
     28 O          22.9192   72.4849    1.5266 O.3     1  UNL1       -0.2858
     29 O          24.2697   72.6908    3.4613 O.3     1  UNL1       -0.3226
     30 O          20.8005   74.5926    4.6513 O.3     1  UNL1       -0.3794
     31 O          20.6766   72.1035    3.1270 O.3     1  UNL1       -0.3775
     32 O          23.1512   76.1513    3.9472 O.3     1  UNL1       -0.3792
     33 C          21.8022   74.1671    3.7275 C.3     1  UNL1        0.1718
     34 C          21.8615   72.6395    3.7044 C.3     1  UNL1        0.1968
     35 C          23.1434   74.7449    4.1849 C.3     1  UNL1        0.1723
     36 C          23.0702   72.1509    2.9051 C.3     1  UNL1        0.2706
     37 C          24.3087   74.1157    3.4268 C.3     1  UNL1        0.1830
     38 H          19.9391   74.2372    4.3808 H       1  UNL1        0.2105
     39 H          19.9056   72.4097    3.6291 H       1  UNL1        0.2106
     40 H          22.4141   76.5639    4.4241 H       1  UNL1        0.2106
     41 O          26.6478   74.1735    3.2624 O.co2   1  UNL1       -0.5466
     42 O          25.7259   74.8661    5.2295 O.co2   1  UNL1       -0.5466
     43 C          25.6079   74.4319    4.0935 C.2     1  UNL1        0.0799
@<TRIPOS>UNITY_ATOM_ATTR
2 1
charge -1
26 1
charge -1
41 1
charge -1
@<TRIPOS>BOND
     1     1     4    1
     2     1    24    1
     3     1     2    1
     4     1     3    2
     5    25    28    1
     6    25    24    1
     7    25    26    1
     8    25    27    2
     9     6    11    1
    10     6    12    1
    11    29    36    1
    12    29    37    1
    13     7     9    1
    14     7    13    1
    15     8    10    1
    16     8    14    1
    17     4     5    1
    18    28    36    1
    19    30    33    1
    20    30    38    1
    21    31    34    1
    22    31    39    1
    23    32    35    1
    24    32    40    1
    25    41    43   ar
    26    15    19    2
    27    42    43   ar
    28    16    22    2
    29    17    12    1
    30    17    19   ar
    31    17    20   ar
    32    18    19   ar
    33    18    22   ar
    34    18    23    1
    35     9    10    1
    36     9    11    1
    37    10    12    1
    38    11     5    1
    39    33    34    1
    40    33    35    1
    41    34    36    1
    42    35    37    1
    43    37    43    1
    44    20    21   ar
    45    21    22   ar
@<TRIPOS>MOLECULE
*****
 43 45 0 0 0
SMALL
GASTEIGER

@<TRIPOS>ATOM
      1 P          22.6013   71.9746   -2.5029 P.3     1  UNL1        0.2189
      2 O          23.1490   73.3843   -1.9270 O.co2   1  UNL1       -0.4371
      3 O          23.4711   71.3352   -3.5452 O.2     1  UNL1       -0.5170
      4 O          21.0845   72.3043   -2.9594 O.3     1  UNL1       -0.3112
      5 C          20.4466   71.4274   -3.8697 C.3     1  UNL1        0.1811
      6 O          18.3922   71.9758   -4.9905 O.3     1  UNL1       -0.3308
      7 O          17.0034   70.5695   -2.7354 O.3     1  UNL1       -0.3794
      8 O          16.9547   68.7023   -4.7222 O.3     1  UNL1       -0.3779
      9 C          18.2445   70.2563   -3.3680 C.3     1  UNL1        0.1713
     10 C          17.9986   69.6535   -4.7349 C.3     1  UNL1        0.1895
     11 C          18.9374   71.5663   -3.7175 C.3     1  UNL1        0.1764
     12 C          17.6616   70.8805   -5.5648 C.3     1  UNL1        0.2383
     13 H          16.5423   69.7480   -2.5027 H       1  UNL1        0.2105
     14 H          17.2179   67.9407   -4.1812 H       1  UNL1        0.2106
     15 O          15.8801   70.2224   -7.6552 O.2     1  UNL1       -0.2464
     16 O          19.2429   70.3440  -10.8049 O.2     1  UNL1       -0.2670
     17 N          18.0449   70.7338   -6.9404 N.ar    1  UNL1       -0.2551
     18 N          17.5569   70.2826   -9.2218 N.ar    1  UNL1       -0.2743
     19 C          17.0721   70.4010   -7.9126 C.ar    1  UNL1        0.3323
     20 C          19.3699   70.9206   -7.3149 C.ar    1  UNL1        0.0869
     21 C          19.8169   70.8044   -8.5669 C.ar    1  UNL1        0.0795
     22 C          18.8651   70.4582   -9.6428 C.ar    1  UNL1        0.2626
     23 H          16.8985   70.0495   -9.9158 H       1  UNL1        0.1734
     24 O          22.3943   71.0918   -1.1647 O.3     1  UNL1       -0.2703
     25 P          21.7683   71.4776    0.2750 P.3     1  UNL1        0.2208
     26 O          21.4241   70.0364    0.9268 O.co2   1  UNL1       -0.4371
     27 O          20.6016   72.4200    0.2067 O.2     1  UNL1       -0.5170
     28 O          23.0207   72.0237    1.1328 O.3     1  UNL1       -0.2858
     29 O          24.7710   71.3527    2.5805 O.3     1  UNL1       -0.3226
     30 O          22.7557   74.1012    4.9155 O.3     1  UNL1       -0.3794
     31 O          21.2798   72.1680    3.2972 O.3     1  UNL1       -0.3775
     32 O          25.2815   74.8194    3.6683 O.3     1  UNL1       -0.3792
     33 C          23.2445   73.5331    3.7005 C.3     1  UNL1        0.1718
     34 C          22.6822   72.1212    3.5332 C.3     1  UNL1        0.1968
     35 C          24.7723   73.4917    3.7789 C.3     1  UNL1        0.1723
     36 C          23.3593   71.3971    2.3687 C.3     1  UNL1        0.2706
     37 C          25.3651   72.6468    2.6549 C.3     1  UNL1        0.1830
     38 H          21.7866   74.1377    4.8887 H       1  UNL1        0.2105
     39 H          20.8438   72.6265    4.0321 H       1  UNL1        0.2106
     40 H          24.9117   75.3677    4.3779 H       1  UNL1        0.2106
     41 O          27.1150   71.0934    2.4926 O.co2   1  UNL1       -0.5466
     42 O          27.5953   73.1045    3.4538 O.co2   1  UNL1       -0.5466
     43 C          26.8028   72.3409    2.9229 C.2     1  UNL1        0.0799
@<TRIPOS>UNITY_ATOM_ATTR
2 1
charge -1
26 1
charge -1
41 1
charge -1
@<TRIPOS>BOND
     1     1     4    1
     2     1    24    1
     3     1     2    1
     4     1     3    2
     5    25    28    1
     6    25    24    1
     7    25    26    1
     8    25    27    2
     9     6    11    1
    10     6    12    1
    11    29    36    1
    12    29    37    1
    13     7     9    1
    14     7    13    1
    15     8    10    1
    16     8    14    1
    17     4     5    1
    18    28    36    1
    19    30    33    1
    20    30    38    1
    21    31    34    1
    22    31    39    1
    23    32    35    1
    24    32    40    1
    25    41    43   ar
    26    15    19    2
    27    42    43   ar
    28    16    22    2
    29    17    12    1
    30    17    19   ar
    31    17    20   ar
    32    18    19   ar
    33    18    22   ar
    34    18    23    1
    35     9    10    1
    36     9    11    1
    37    10    12    1
    38    11     5    1
    39    33    34    1
    40    33    35    1
    41    34    36    1
    42    35    37    1
    43    37    43    1
    44    20    21   ar
    45    21    22   ar
@<TRIPOS>MOLECULE
*****
 43 45 0 0 0
SMALL
GASTEIGER

@<TRIPOS>ATOM
      1 P          23.2094   71.7351   -2.7389 P.3     1  UNL1        0.2189
      2 O          23.5295   73.3214   -2.7439 O.co2   1  UNL1       -0.4371
      3 O          24.3302   70.8610   -3.2200 O.2     1  UNL1       -0.5170
      4 O          21.8221   71.6160   -3.5631 O.3     1  UNL1       -0.3112
      5 C          21.5466   72.5772   -4.5655 C.3     1  UNL1        0.1811
      6 O          20.6328   70.6645   -5.6988 O.3     1  UNL1       -0.3308
      7 O          21.0120   72.2189   -8.2348 O.3     1  UNL1       -0.3794
      8 O          18.3466   72.5205   -7.7440 O.3     1  UNL1       -0.3779
      9 C          20.6350   72.6830   -6.9383 C.3     1  UNL1        0.1713
     10 C          19.2007   72.3000   -6.6411 C.3     1  UNL1        0.1895
     11 C          21.4028   71.8685   -5.9062 C.3     1  UNL1        0.1764
     12 C          19.3338   70.8280   -6.2896 C.3     1  UNL1        0.2383
     13 H          20.5342   72.7247   -8.9112 H       1  UNL1        0.2105
     14 H          18.2949   73.4721   -7.9277 H       1  UNL1        0.2106
     15 O          16.7771   69.8676   -7.0090 O.2     1  UNL1       -0.2464
     16 O          15.5884   69.1993   -2.6063 O.2     1  UNL1       -0.2670
     17 N          18.3365   70.3963   -5.3515 N.ar    1  UNL1       -0.2551
     18 N          16.1871   69.5366   -4.8155 N.ar    1  UNL1       -0.2743
     19 C          17.0839   69.9312   -5.8171 C.ar    1  UNL1        0.3323
     20 C          18.6038   70.4344   -3.9884 C.ar    1  UNL1        0.0869
     21 C          17.7390   70.0548   -3.0457 C.ar    1  UNL1        0.0795
     22 C          16.4072   69.5568   -3.4477 C.ar    1  UNL1        0.2626
     23 H          15.3076   69.2110   -5.1151 H       1  UNL1        0.1734
     24 O          22.7501   71.4624   -1.2132 O.3     1  UNL1       -0.2703
     25 P          21.5448   72.0920   -0.3389 P.3     1  UNL1        0.2208
     26 O          20.7412   70.7855    0.1782 O.co2   1  UNL1       -0.4371
     27 O          20.6984   73.0847   -1.0819 O.2     1  UNL1       -0.5170
     28 O          22.2608   72.6789    0.9823 O.3     1  UNL1       -0.2858
     29 O          24.1111   71.8706    2.2201 O.3     1  UNL1       -0.3226
     30 O          21.7999   73.5836    5.1851 O.3     1  UNL1       -0.3794
     31 O          20.5579   71.9941    3.0720 O.3     1  UNL1       -0.3775
     32 O          24.1860   74.9406    4.2280 O.3     1  UNL1       -0.3792
     33 C          22.3352   73.4402    3.8695 C.3     1  UNL1        0.1718
     34 C          21.9587   72.0679    3.3106 C.3     1  UNL1        0.1968
     35 C          23.8565   73.5789    3.9603 C.3     1  UNL1        0.1723
     36 C          22.7020   71.7866    2.0040 C.3     1  UNL1        0.2706
     37 C          24.5327   73.1604    2.6579 C.3     1  UNL1        0.1830
     38 H          20.8339   73.4991    5.1524 H       1  UNL1        0.2105
     39 H          20.0800   72.1718    3.8969 H       1  UNL1        0.2106
     40 H          23.7616   75.2195    5.0544 H       1  UNL1        0.2106
     41 O          26.3595   71.6892    2.6640 O.co2   1  UNL1       -0.5466
     42 O          26.7837   73.8762    3.1498 O.co2   1  UNL1       -0.5466
     43 C          26.0029   72.9833    2.8566 C.2     1  UNL1        0.0799
@<TRIPOS>UNITY_ATOM_ATTR
2 1
charge -1
26 1
charge -1
41 1
charge -1
@<TRIPOS>BOND
     1     1     4    1
     2     1    24    1
     3     1     2    1
     4     1     3    2
     5    25    28    1
     6    25    24    1
     7    25    26    1
     8    25    27    2
     9     6    11    1
    10     6    12    1
    11    29    36    1
    12    29    37    1
    13     7     9    1
    14     7    13    1
    15     8    10    1
    16     8    14    1
    17     4     5    1
    18    28    36    1
    19    30    33    1
    20    30    38    1
    21    31    34    1
    22    31    39    1
    23    32    35    1
    24    32    40    1
    25    41    43   ar
    26    15    19    2
    27    42    43   ar
    28    16    22    2
    29    17    12    1
    30    17    19   ar
    31    17    20   ar
    32    18    19   ar
    33    18    22   ar
    34    18    23    1
    35     9    10    1
    36     9    11    1
    37    10    12    1
    38    11     5    1
    39    33    34    1
    40    33    35    1
    41    34    36    1
    42    35    37    1
    43    37    43    1
    44    20    21   ar
    45    21    22   ar
@<TRIPOS>MOLECULE
*****
 43 45 0 0 0
SMALL
GASTEIGER

@<TRIPOS>ATOM
      1 P          20.8781   71.0986   -2.8355 P.3     1  UNL1        0.2189
      2 O          20.8242   69.9138   -3.9366 O.co2   1  UNL1       -0.4371
      3 O          21.5159   70.7221   -1.5305 O.2     1  UNL1       -0.5170
      4 O          19.3476   71.6159   -2.7462 O.3     1  UNL1       -0.3112
      5 C          18.8058   72.3180   -3.8498 C.3     1  UNL1        0.1811
      6 O          16.9965   72.0451   -5.4085 O.3     1  UNL1       -0.3308
      7 O          15.6639   70.3969   -3.2874 O.3     1  UNL1       -0.3794
      8 O          16.6763   68.5016   -4.9664 O.3     1  UNL1       -0.3779
      9 C          17.0489   70.4922   -3.6207 C.3     1  UNL1        0.1713
     10 C          17.3295   69.7526   -4.9116 C.3     1  UNL1        0.1895
     11 C          17.3402   71.9350   -4.0103 C.3     1  UNL1        0.1764
     12 C          16.8112   70.7291   -5.9536 C.3     1  UNL1        0.2383
     13 H          15.4538   69.4838   -3.0350 H       1  UNL1        0.2105
     14 H          17.0417   67.9159   -4.2842 H       1  UNL1        0.2106
     15 O          15.5853   70.7158   -8.4979 O.2     1  UNL1       -0.2464
     16 O          19.6437   70.3592  -10.6534 O.2     1  UNL1       -0.2670
     17 N          17.5237   70.6338   -7.1962 N.ar    1  UNL1       -0.2551
     18 N          17.6077   70.5372   -9.5690 N.ar    1  UNL1       -0.2743
     19 C          16.8126   70.6355   -8.4195 C.ar    1  UNL1        0.3323
     20 C          18.9102   70.5417   -7.1954 C.ar    1  UNL1        0.0869
     21 C          19.6544   70.4488   -8.2992 C.ar    1  UNL1        0.0795
     22 C          18.9891   70.4429   -9.6186 C.ar    1  UNL1        0.2626
     23 H          17.1349   70.5343  -10.4325 H       1  UNL1        0.1734
     24 O          21.6209   72.2962   -3.6272 O.3     1  UNL1       -0.2703
     25 P          23.1679   72.4855   -4.0567 P.3     1  UNL1        0.2208
     26 O          23.1086   72.4595   -5.6741 O.co2   1  UNL1       -0.4371
     27 O          24.1018   71.4752   -3.4558 O.2     1  UNL1       -0.5170
     28 O          23.5110   74.0177   -3.6864 O.3     1  UNL1       -0.2858
     29 O          23.0598   74.6112   -1.4384 O.3     1  UNL1       -0.3226
     30 O          23.8544   78.2926   -3.1366 O.3     1  UNL1       -0.3794
     31 O          22.2276   76.3261   -4.5582 O.3     1  UNL1       -0.3775
     32 O          25.8405   77.0049   -1.4490 O.3     1  UNL1       -0.3792
     33 C          23.9771   76.8800   -2.9713 C.3     1  UNL1        0.1718
     34 C          22.6168   76.2185   -3.1938 C.3     1  UNL1        0.1968
     35 C          24.4730   76.6117   -1.5486 C.3     1  UNL1        0.1723
     36 C          22.6564   74.7407   -2.8023 C.3     1  UNL1        0.2706
     37 C          24.3635   75.1325   -1.1901 C.3     1  UNL1        0.1830
     38 H          23.5404   78.4872   -4.0338 H       1  UNL1        0.2105
     39 H          22.2007   77.2612   -4.8136 H       1  UNL1        0.2106
     40 H          25.9240   77.9445   -1.6748 H       1  UNL1        0.2106
     41 O          24.4912   76.1160    0.9355 O.co2   1  UNL1       -0.5466
     42 O          24.6824   73.8465    0.8263 O.co2   1  UNL1       -0.5466
     43 C          24.5315   74.9292    0.2805 C.2     1  UNL1        0.0799
@<TRIPOS>UNITY_ATOM_ATTR
2 1
charge -1
26 1
charge -1
41 1
charge -1
@<TRIPOS>BOND
     1     1     4    1
     2     1    24    1
     3     1     2    1
     4     1     3    2
     5    25    28    1
     6    25    24    1
     7    25    26    1
     8    25    27    2
     9     6    11    1
    10     6    12    1
    11    29    36    1
    12    29    37    1
    13     7     9    1
    14     7    13    1
    15     8    10    1
    16     8    14    1
    17     4     5    1
    18    28    36    1
    19    30    33    1
    20    30    38    1
    21    31    34    1
    22    31    39    1
    23    32    35    1
    24    32    40    1
    25    41    43   ar
    26    15    19    2
    27    42    43   ar
    28    16    22    2
    29    17    12    1
    30    17    19   ar
    31    17    20   ar
    32    18    19   ar
    33    18    22   ar
    34    18    23    1
    35     9    10    1
    36     9    11    1
    37    10    12    1
    38    11     5    1
    39    33    34    1
    40    33    35    1
    41    34    36    1
    42    35    37    1
    43    37    43    1
    44    20    21   ar
    45    21    22   ar
@<TRIPOS>MOLECULE
*****
 43 45 0 0 0
SMALL
GASTEIGER

@<TRIPOS>ATOM
      1 P          22.8813   71.5157   -3.2075 P.3     1  UNL1        0.2189
      2 O          22.5477   71.9268   -4.7368 O.co2   1  UNL1       -0.4371
      3 O          24.2294   70.8903   -2.9993 O.2     1  UNL1       -0.5170
      4 O          21.6128   70.6157   -2.7616 O.3     1  UNL1       -0.3112
      5 C          20.7307   70.1464   -3.7647 C.3     1  UNL1        0.1811
      6 O          18.9298   71.4395   -4.6934 O.3     1  UNL1       -0.3308
      7 O          17.2109   70.2417   -2.5481 O.3     1  UNL1       -0.3794
      8 O          16.5512   68.7573   -4.7384 O.3     1  UNL1       -0.3779
      9 C          18.2824   69.6499   -3.2830 C.3     1  UNL1        0.1713
     10 C          17.8385   69.3365   -4.6962 C.3     1  UNL1        0.1895
     11 C          19.3420   70.7191   -3.5117 C.3     1  UNL1        0.1764
     12 C          17.8855   70.7058   -5.3525 C.3     1  UNL1        0.2383
     13 H          16.5213   69.5775   -2.3899 H       1  UNL1        0.2105
     14 H          16.5737   67.8875   -4.3085 H       1  UNL1        0.2106
     15 O          15.9511   70.3046   -7.3709 O.2     1  UNL1       -0.2464
     16 O          19.1340   70.4362  -10.7020 O.2     1  UNL1       -0.2670
     17 N          18.1812   70.6311   -6.7554 N.ar    1  UNL1       -0.2551
     18 N          17.5383   70.3695   -9.0279 N.ar    1  UNL1       -0.2743
     19 C          17.1360   70.4268   -7.6871 C.ar    1  UNL1        0.3323
     20 C          19.4927   70.7614   -7.1957 C.ar    1  UNL1        0.0869
     21 C          19.8607   70.7046   -8.4771 C.ar    1  UNL1        0.0795
     22 C          18.8298   70.4928   -9.5143 C.ar    1  UNL1        0.2626
     23 H          16.8285   70.2259   -9.6949 H       1  UNL1        0.1734
     24 O          22.6481   72.8971   -2.4013 O.3     1  UNL1       -0.2703
     25 P          23.6164   74.1725   -2.1785 P.3     1  UNL1        0.2208
     26 O          22.5758   75.3942   -1.9665 O.co2   1  UNL1       -0.4371
     27 O          24.6104   74.3912   -3.2821 O.2     1  UNL1       -0.5170
     28 O          24.2723   73.9391   -0.7232 O.3     1  UNL1       -0.2858
     29 O          22.4792   73.3159    0.6930 O.3     1  UNL1       -0.3226
     30 O          25.7124   73.0111    3.2466 O.3     1  UNL1       -0.3794
     31 O          25.4932   75.2618    1.3971 O.3     1  UNL1       -0.3775
     32 O          24.4890   70.6134    2.1488 O.3     1  UNL1       -0.3792
     33 C          25.0325   72.9555    1.9926 C.3     1  UNL1        0.1718
     34 C          24.4509   74.3308    1.6644 C.3     1  UNL1        0.1968
     35 C          23.9135   71.9179    2.1070 C.3     1  UNL1        0.1723
     36 C          23.5250   74.2574    0.4494 C.3     1  UNL1        0.2706
     37 C          22.9606   71.9927    0.9175 C.3     1  UNL1        0.1830
     38 H          26.4282   73.6643    3.1979 H       1  UNL1        0.2105
     39 H          26.0847   75.3132    2.1639 H       1  UNL1        0.2106
     40 H          25.0978   70.5526    2.9015 H       1  UNL1        0.2106
     41 O          20.7277   72.0458    1.6336 O.co2   1  UNL1       -0.5466
     42 O          21.5804   70.0173    1.0361 O.co2   1  UNL1       -0.5466
     43 C          21.7099   71.2224    1.1905 C.2     1  UNL1        0.0799
@<TRIPOS>UNITY_ATOM_ATTR
2 1
charge -1
26 1
charge -1
41 1
charge -1
@<TRIPOS>BOND
     1     1     4    1
     2     1    24    1
     3     1     2    1
     4     1     3    2
     5    25    28    1
     6    25    24    1
     7    25    26    1
     8    25    27    2
     9     6    11    1
    10     6    12    1
    11    29    36    1
    12    29    37    1
    13     7     9    1
    14     7    13    1
    15     8    10    1
    16     8    14    1
    17     4     5    1
    18    28    36    1
    19    30    33    1
    20    30    38    1
    21    31    34    1
    22    31    39    1
    23    32    35    1
    24    32    40    1
    25    41    43   ar
    26    15    19    2
    27    42    43   ar
    28    16    22    2
    29    17    12    1
    30    17    19   ar
    31    17    20   ar
    32    18    19   ar
    33    18    22   ar
    34    18    23    1
    35     9    10    1
    36     9    11    1
    37    10    12    1
    38    11     5    1
    39    33    34    1
    40    33    35    1
    41    34    36    1
    42    35    37    1
    43    37    43    1
    44    20    21   ar
    45    21    22   ar
@<TRIPOS>MOLECULE
*****
 43 45 0 0 0
SMALL
GASTEIGER

@<TRIPOS>ATOM
      1 P          21.6407   73.0316   -4.5813 P.3     1  UNL1        0.2189
      2 O          22.0030   74.5821   -4.8703 O.co2   1  UNL1       -0.4371
      3 O          22.0011   72.0805   -5.6845 O.2     1  UNL1       -0.5170
      4 O          20.0767   73.0686   -4.1684 O.3     1  UNL1       -0.3112
      5 C          19.4562   71.8628   -3.7615 C.3     1  UNL1        0.1811
      6 O          17.6253   72.3356   -5.2453 O.3     1  UNL1       -0.3308
      7 O          15.8584   71.1097   -3.1556 O.3     1  UNL1       -0.3794
      8 O          16.1066   69.0987   -4.9806 O.3     1  UNL1       -0.3779
      9 C          17.1814   70.7437   -3.5484 C.3     1  UNL1        0.1713
     10 C          17.1545   70.0411   -4.8893 C.3     1  UNL1        0.1895
     11 C          17.9452   72.0202   -3.8729 C.3     1  UNL1        0.1764
     12 C          16.9808   71.2039   -5.8513 C.3     1  UNL1        0.2383
     13 H          15.3510   70.3103   -2.9433 H       1  UNL1        0.2105
     14 H          16.2634   68.3786   -4.3491 H       1  UNL1        0.2106
     15 O          15.5358   70.7845   -8.2413 O.2     1  UNL1       -0.2464
     16 O          19.3987   70.2475  -10.6976 O.2     1  UNL1       -0.2670
     17 N          17.5838   70.9524   -7.1296 N.ar    1  UNL1       -0.2551
     18 N          17.4611   70.5164   -9.4622 N.ar    1  UNL1       -0.2743
     19 C          16.7675   70.7549   -8.2684 C.ar    1  UNL1        0.3323
     20 C          18.9676   70.9050   -7.2464 C.ar    1  UNL1        0.0869
     21 C          19.6143   70.6768   -8.3912 C.ar    1  UNL1        0.0795
     22 C          18.8355   70.4594   -9.6279 C.ar    1  UNL1        0.2626
     23 H          16.9142   70.3739  -10.2683 H       1  UNL1        0.1734
     24 O          22.3813   72.7422   -3.1739 O.3     1  UNL1       -0.2703
     25 P          22.7749   71.3525   -2.4477 P.3     1  UNL1        0.2208
     26 O          24.2441   71.0267   -3.0443 O.co2   1  UNL1       -0.4371
     27 O          21.7718   70.2520   -2.6391 O.2     1  UNL1       -0.5170
     28 O          23.0408   71.7559   -0.9086 O.3     1  UNL1       -0.2858
     29 O          24.3241   70.8391    0.8583 O.3     1  UNL1       -0.3226
     30 O          20.8847   71.9989    2.8314 O.3     1  UNL1       -0.3794
     31 O          20.7271   70.7014    0.2187 O.3     1  UNL1       -0.3775
     32 O          23.3157   73.5719    3.0892 O.3     1  UNL1       -0.3792
     33 C          21.9042   72.0754    1.8350 C.3     1  UNL1        0.1718
     34 C          21.9082   70.7900    1.0072 C.3     1  UNL1        0.1968
     35 C          23.2475   72.2549    2.5458 C.3     1  UNL1        0.1723
     36 C          23.1275   70.7367    0.0856 C.3     1  UNL1        0.2706
     37 C          24.4166   72.0629    1.5842 C.3     1  UNL1        0.1830
     38 H          20.0217   71.8846    2.4031 H       1  UNL1        0.2105
     39 H          19.9494   70.7349    0.7971 H       1  UNL1        0.2106
     40 H          22.5769   73.7071    3.7030 H       1  UNL1        0.2106
     41 O          26.0138   73.0612    2.9820 O.co2   1  UNL1       -0.5466
     42 O          26.3794   70.8969    2.3647 O.co2   1  UNL1       -0.5466
     43 C          25.7005   71.9123    2.3334 C.2     1  UNL1        0.0799
@<TRIPOS>UNITY_ATOM_ATTR
2 1
charge -1
26 1
charge -1
41 1
charge -1
@<TRIPOS>BOND
     1     1     4    1
     2     1    24    1
     3     1     2    1
     4     1     3    2
     5    25    28    1
     6    25    24    1
     7    25    26    1
     8    25    27    2
     9     6    11    1
    10     6    12    1
    11    29    36    1
    12    29    37    1
    13     7     9    1
    14     7    13    1
    15     8    10    1
    16     8    14    1
    17     4     5    1
    18    28    36    1
    19    30    33    1
    20    30    38    1
    21    31    34    1
    22    31    39    1
    23    32    35    1
    24    32    40    1
    25    41    43   ar
    26    15    19    2
    27    42    43   ar
    28    16    22    2
    29    17    12    1
    30    17    19   ar
    31    17    20   ar
    32    18    19   ar
    33    18    22   ar
    34    18    23    1
    35     9    10    1
    36     9    11    1
    37    10    12    1
    38    11     5    1
    39    33    34    1
    40    33    35    1
    41    34    36    1
    42    35    37    1
    43    37    43    1
    44    20    21   ar
    45    21    22   ar
@<TRIPOS>MOLECULE
*****
 43 45 0 0 0
SMALL
GASTEIGER

@<TRIPOS>ATOM
      1 P          20.9863   71.1839   -2.7917 P.3     1  UNL1        0.2189
      2 O          20.9328   69.9897   -3.8826 O.co2   1  UNL1       -0.4371
      3 O          21.6777   70.8368   -1.5059 O.2     1  UNL1       -0.5170
      4 O          19.4444   71.6549   -2.6555 O.3     1  UNL1       -0.3112
      5 C          18.8423   72.3226   -3.7492 C.3     1  UNL1        0.1811
      6 O          16.9855   71.9980   -5.2408 O.3     1  UNL1       -0.3308
      7 O          15.8028   70.2707   -3.0939 O.3     1  UNL1       -0.3794
      8 O          16.8225   68.4392   -4.8380 O.3     1  UNL1       -0.3779
      9 C          17.1689   70.4254   -3.4789 C.3     1  UNL1        0.1713
     10 C          17.4276   69.7143   -4.7903 C.3     1  UNL1        0.1895
     11 C          17.3877   71.8836   -3.8586 C.3     1  UNL1        0.1764
     12 C          16.8310   70.6828   -5.7973 C.3     1  UNL1        0.2383
     13 H          15.6388   69.3467   -2.8468 H       1  UNL1        0.2105
     14 H          17.2370   67.8597   -4.1790 H       1  UNL1        0.2106
     15 O          15.5074   70.6354   -8.2918 O.2     1  UNL1       -0.2464
     16 O          19.4897   70.4879  -10.6077 O.2     1  UNL1       -0.2670
     17 N          17.4975   70.6321   -7.0677 N.ar    1  UNL1       -0.2551
     18 N          17.4921   70.5610   -9.4428 N.ar    1  UNL1       -0.2743
     19 C          16.7393   70.6117   -8.2622 C.ar    1  UNL1        0.3323
     20 C          18.8857   70.6048   -7.1220 C.ar    1  UNL1        0.0869
     21 C          19.5892   70.5566   -8.2550 C.ar    1  UNL1        0.0795
     22 C          18.8733   70.5316   -9.5474 C.ar    1  UNL1        0.2626
     23 H          16.9862   70.5439  -10.2873 H       1  UNL1        0.1734
     24 O          21.6657   72.3976   -3.6153 O.3     1  UNL1       -0.2703
     25 P          23.1712   72.5908   -4.1718 P.3     1  UNL1        0.2208
     26 O          22.9977   72.4260   -5.7728 O.co2   1  UNL1       -0.4371
     27 O          24.1781   71.6604   -3.5599 O.2     1  UNL1       -0.5170
     28 O          23.4894   74.1575   -3.9559 O.3     1  UNL1       -0.2858
     29 O          25.6502   74.8876   -3.3179 O.3     1  UNL1       -0.3226
     30 O          23.3264   78.1479   -2.2988 O.3     1  UNL1       -0.3794
     31 O          22.3984   75.4349   -1.7391 O.3     1  UNL1       -0.3775
     32 O          24.9897   78.2292   -4.6816 O.3     1  UNL1       -0.3792
     33 C          23.6979   76.9997   -3.0615 C.3     1  UNL1        0.1718
     34 C          23.7175   75.7681   -2.1559 C.3     1  UNL1        0.1968
     35 C          25.0888   77.2514   -3.6479 C.3     1  UNL1        0.1723
     36 C          24.3297   74.5673   -2.8785 C.3     1  UNL1        0.2706
     37 C          25.6835   75.9761   -4.2383 C.3     1  UNL1        0.1830
     38 H          22.4454   78.0109   -1.9161 H       1  UNL1        0.2105
     39 H          22.0038   76.1925   -1.2800 H       1  UNL1        0.2106
     40 H          24.6124   79.0459   -4.3189 H       1  UNL1        0.2106
     41 O          27.7143   74.9563   -4.8194 O.co2   1  UNL1       -0.5466
     42 O          27.7482   77.2063   -4.4510 O.co2   1  UNL1       -0.5466
     43 C          27.1439   76.1456   -4.5047 C.2     1  UNL1        0.0799
@<TRIPOS>UNITY_ATOM_ATTR
2 1
charge -1
26 1
charge -1
41 1
charge -1
@<TRIPOS>BOND
     1     1     4    1
     2     1    24    1
     3     1     2    1
     4     1     3    2
     5    25    28    1
     6    25    24    1
     7    25    26    1
     8    25    27    2
     9     6    11    1
    10     6    12    1
    11    29    36    1
    12    29    37    1
    13     7     9    1
    14     7    13    1
    15     8    10    1
    16     8    14    1
    17     4     5    1
    18    28    36    1
    19    30    33    1
    20    30    38    1
    21    31    34    1
    22    31    39    1
    23    32    35    1
    24    32    40    1
    25    41    43   ar
    26    15    19    2
    27    42    43   ar
    28    16    22    2
    29    17    12    1
    30    17    19   ar
    31    17    20   ar
    32    18    19   ar
    33    18    22   ar
    34    18    23    1
    35     9    10    1
    36     9    11    1
    37    10    12    1
    38    11     5    1
    39    33    34    1
    40    33    35    1
    41    34    36    1
    42    35    37    1
    43    37    43    1
    44    20    21   ar
    45    21    22   ar
@<TRIPOS>MOLECULE
*****
 43 45 0 0 0
SMALL
GASTEIGER

@<TRIPOS>ATOM
      1 P          21.4333   73.0187   -5.1049 P.3     1  UNL1        0.2189
      2 O          21.5825   74.5203   -4.5203 O.co2   1  UNL1       -0.4371
      3 O          22.0253   72.8075   -6.4676 O.2     1  UNL1       -0.5170
      4 O          19.8519   72.7043   -4.9695 O.3     1  UNL1       -0.3112
      5 C          19.4089   71.9254   -3.8734 C.3     1  UNL1        0.1811
      6 O          17.4882   72.0115   -5.3160 O.3     1  UNL1       -0.3308
      7 O          16.0490   70.4717   -3.1830 O.3     1  UNL1       -0.3794
      8 O          16.6548   68.5381   -5.0079 O.3     1  UNL1       -0.3779
      9 C          17.4096   70.3751   -3.6052 C.3     1  UNL1        0.1713
     10 C          17.4945   69.6717   -4.9432 C.3     1  UNL1        0.1895
     11 C          17.8949   71.7764   -3.9505 C.3     1  UNL1        0.1764
     12 C          17.0703   70.7693   -5.9040 C.3     1  UNL1        0.2383
     13 H          15.7168   69.5884   -2.9569 H       1  UNL1        0.2105
     14 H          16.9665   67.8684   -4.3783 H       1  UNL1        0.2106
     15 O          15.6464   70.6420   -8.3397 O.2     1  UNL1       -0.2464
     16 O          19.5256   70.2512  -10.7979 O.2     1  UNL1       -0.2670
     17 N          17.6831   70.6344   -7.1951 N.ar    1  UNL1       -0.2551
     18 N          17.5798   70.4464   -9.5616 N.ar    1  UNL1       -0.2743
     19 C          16.8771   70.5797   -8.3568 C.ar    1  UNL1        0.3323
     20 C          19.0666   70.5594   -7.3018 C.ar    1  UNL1        0.0869
     21 C          19.7220   70.4326   -8.4573 C.ar    1  UNL1        0.0795
     22 C          18.9541   70.3672   -9.7180 C.ar    1  UNL1        0.2626
     23 H          17.0399   70.4042  -10.3839 H       1  UNL1        0.1734
     24 O          22.0858   72.1089   -3.9390 O.3     1  UNL1       -0.2703
     25 P          23.5566   72.1371   -3.2685 P.3     1  UNL1        0.2208
     26 O          24.4154   73.0436   -4.2986 O.co2   1  UNL1       -0.4371
     27 O          24.1398   70.7789   -3.0058 O.2     1  UNL1       -0.5170
     28 O          23.3903   73.0597   -1.9556 O.3     1  UNL1       -0.2858
     29 O          21.6517   72.3800   -0.4980 O.3     1  UNL1       -0.3226
     30 O          22.7084   76.0391    1.1027 O.3     1  UNL1       -0.3794
     31 O          22.5056   75.6915   -1.7908 O.3     1  UNL1       -0.3775
     32 O          23.5394   73.5795    2.4106 O.3     1  UNL1       -0.3792
     33 C          22.9258   74.8008    0.4264 C.3     1  UNL1        0.1718
     34 C          22.0557   74.7439   -0.8294 C.3     1  UNL1        0.1968
     35 C          22.5528   73.6671    1.3842 C.3     1  UNL1        0.1723
     36 C          22.0866   73.3481   -1.4536 C.3     1  UNL1        0.2706
     37 C          22.4826   72.3260    0.6595 C.3     1  UNL1        0.1830
     38 H          22.9387   76.7745    0.5132 H       1  UNL1        0.2105
     39 H          22.4889   76.5794   -1.4014 H       1  UNL1        0.2106
     40 H          23.5943   74.4268    2.8795 H       1  UNL1        0.2106
     41 O          21.2989   71.8648    2.6313 O.co2   1  UNL1       -0.5466
     42 O          21.7203   70.1108    1.2367 O.co2   1  UNL1       -0.5466
     43 C          21.8080   71.2987    1.5091 C.2     1  UNL1        0.0799
@<TRIPOS>UNITY_ATOM_ATTR
2 1
charge -1
26 1
charge -1
41 1
charge -1
@<TRIPOS>BOND
     1     1     4    1
     2     1    24    1
     3     1     2    1
     4     1     3    2
     5    25    28    1
     6    25    24    1
     7    25    26    1
     8    25    27    2
     9     6    11    1
    10     6    12    1
    11    29    36    1
    12    29    37    1
    13     7     9    1
    14     7    13    1
    15     8    10    1
    16     8    14    1
    17     4     5    1
    18    28    36    1
    19    30    33    1
    20    30    38    1
    21    31    34    1
    22    31    39    1
    23    32    35    1
    24    32    40    1
    25    41    43   ar
    26    15    19    2
    27    42    43   ar
    28    16    22    2
    29    17    12    1
    30    17    19   ar
    31    17    20   ar
    32    18    19   ar
    33    18    22   ar
    34    18    23    1
    35     9    10    1
    36     9    11    1
    37    10    12    1
    38    11     5    1
    39    33    34    1
    40    33    35    1
    41    34    36    1
    42    35    37    1
    43    37    43    1
    44    20    21   ar
    45    21    22   ar
@<TRIPOS>MOLECULE
*****
 43 45 0 0 0
SMALL
GASTEIGER

@<TRIPOS>ATOM
      1 P          21.9022   71.7857   -2.5545 P.3     1  UNL1        0.2189
      2 O          22.3484   73.3411   -2.5339 O.co2   1  UNL1       -0.4371
      3 O          22.9727   70.8250   -2.9824 O.2     1  UNL1       -0.5170
      4 O          20.5544   71.7800   -3.4497 O.3     1  UNL1       -0.3112
      5 C          19.7374   70.6238   -3.4343 C.3     1  UNL1        0.1811
      6 O          18.0093   71.7015   -4.7110 O.3     1  UNL1       -0.3308
      7 O          16.0657   70.3646   -2.8599 O.3     1  UNL1       -0.3794
      8 O          15.9625   68.7808   -5.0773 O.3     1  UNL1       -0.3779
      9 C          17.3059   69.8778   -3.3731 C.3     1  UNL1        0.1713
     10 C          17.1558   69.4945   -4.8301 C.3     1  UNL1        0.1895
     11 C          18.2749   71.0496   -3.4501 C.3     1  UNL1        0.1764
     12 C          17.1798   70.8494   -5.5168 C.3     1  UNL1        0.2383
     13 H          15.4302   69.6336   -2.8016 H       1  UNL1        0.2105
     14 H          15.9962   67.9259   -4.6191 H       1  UNL1        0.2106
     15 O          15.6844   70.2272   -7.8305 O.2     1  UNL1       -0.2464
     16 O          19.3849   70.6212  -10.5499 O.2     1  UNL1       -0.2670
     17 N          17.7273   70.7825   -6.8421 N.ar    1  UNL1       -0.2551
     18 N          17.5291   70.4230   -9.1826 N.ar    1  UNL1       -0.2743
     19 C          16.8898   70.4612   -7.9364 C.ar    1  UNL1        0.3323
     20 C          19.0781   71.0351   -7.0481 C.ar    1  UNL1        0.0869
     21 C          19.6731   70.9950   -8.2419 C.ar    1  UNL1        0.0795
     22 C          18.8692   70.6660   -9.4372 C.ar    1  UNL1        0.2626
     23 H          16.9669   70.1995   -9.9593 H       1  UNL1        0.1734
     24 O          21.3442   71.5483   -1.0561 O.3     1  UNL1       -0.2703
     25 P          22.1140   71.1821    0.3175 P.3     1  UNL1        0.2208
     26 O          23.6689   71.1380   -0.1303 O.co2   1  UNL1       -0.4371
     27 O          21.6258   69.9271    0.9812 O.2     1  UNL1       -0.5170
     28 O          21.9887   72.5109    1.2237 O.3     1  UNL1       -0.2858
     29 O          21.6802   72.6194    3.5694 O.3     1  UNL1       -0.3226
     30 O          19.9191   76.1437    2.3259 O.3     1  UNL1       -0.3794
     31 O          19.4889   73.6674    0.8368 O.3     1  UNL1       -0.3775
     32 O          22.5422   76.1858    3.5785 O.3     1  UNL1       -0.3792
     33 C          20.8531   75.0651    2.2761 C.3     1  UNL1        0.1718
     34 C          20.1007   73.7435    2.1193 C.3     1  UNL1        0.1968
     35 C          21.6524   75.0710    3.5811 C.3     1  UNL1        0.1723
     36 C          21.0447   72.5527    2.2922 C.3     1  UNL1        0.2706
     37 C          22.4717   73.7933    3.7383 C.3     1  UNL1        0.1830
     38 H          19.3996   76.1599    1.5067 H       1  UNL1        0.2105
     39 H          18.8888   74.4201    0.7202 H       1  UNL1        0.2106
     40 H          22.0333   77.0055    3.4789 H       1  UNL1        0.2106
     41 O          24.0966   74.4046    5.3155 O.co2   1  UNL1       -0.5466
     42 O          22.4634   72.9715    6.0068 O.co2   1  UNL1       -0.5466
     43 C          22.9792   73.6573    5.1369 C.2     1  UNL1        0.0799
@<TRIPOS>UNITY_ATOM_ATTR
2 1
charge -1
26 1
charge -1
41 1
charge -1
@<TRIPOS>BOND
     1     1     4    1
     2     1    24    1
     3     1     2    1
     4     1     3    2
     5    25    28    1
     6    25    24    1
     7    25    26    1
     8    25    27    2
     9     6    11    1
    10     6    12    1
    11    29    36    1
    12    29    37    1
    13     7     9    1
    14     7    13    1
    15     8    10    1
    16     8    14    1
    17     4     5    1
    18    28    36    1
    19    30    33    1
    20    30    38    1
    21    31    34    1
    22    31    39    1
    23    32    35    1
    24    32    40    1
    25    41    43   ar
    26    15    19    2
    27    42    43   ar
    28    16    22    2
    29    17    12    1
    30    17    19   ar
    31    17    20   ar
    32    18    19   ar
    33    18    22   ar
    34    18    23    1
    35     9    10    1
    36     9    11    1
    37    10    12    1
    38    11     5    1
    39    33    34    1
    40    33    35    1
    41    34    36    1
    42    35    37    1
    43    37    43    1
    44    20    21   ar
    45    21    22   ar
@<TRIPOS>MOLECULE
*****
 43 45 0 0 0
SMALL
GASTEIGER

@<TRIPOS>ATOM
      1 P          20.6641   71.2321   -1.7945 P.3     1  UNL1        0.2189
      2 O          21.0720   70.2132   -2.9838 O.co2   1  UNL1       -0.4371
      3 O          20.6268   70.6231   -0.4235 O.2     1  UNL1       -0.5170
      4 O          19.2794   71.8935   -2.3074 O.3     1  UNL1       -0.3112
      5 C          19.0051   71.8961   -3.6964 C.3     1  UNL1        0.1811
      6 O          17.2258   72.1357   -5.2947 O.3     1  UNL1       -0.3308
      7 O          15.5059   70.6744   -3.3203 O.3     1  UNL1       -0.3794
      8 O          16.1307   68.7261   -5.1230 O.3     1  UNL1       -0.3779
      9 C          16.8876   70.4874   -3.6274 C.3     1  UNL1        0.1713
     10 C          17.0382   69.7968   -4.9663 C.3     1  UNL1        0.1895
     11 C          17.4966   71.8552   -3.9042 C.3     1  UNL1        0.1764
     12 C          16.7750   70.9336   -5.9390 C.3     1  UNL1        0.2383
     13 H          15.0951   69.8140   -3.1397 H       1  UNL1        0.2105
     14 H          16.3402   68.0282   -4.4818 H       1  UNL1        0.2106
     15 O          15.5391   70.6202   -8.4591 O.2     1  UNL1       -0.2464
     16 O          19.6005   70.3219  -10.6176 O.2     1  UNL1       -0.2670
     17 N          17.4855   70.7721   -7.1759 N.ar    1  UNL1       -0.2551
     18 N          17.5631   70.4709   -9.5316 N.ar    1  UNL1       -0.2743
     19 C          16.7694   70.6221   -8.3869 C.ar    1  UNL1        0.3323
     20 C          18.8751   70.7652   -7.1817 C.ar    1  UNL1        0.0869
     21 C          19.6179   70.6203   -8.2808 C.ar    1  UNL1        0.0795
     22 C          18.9474   70.4569   -9.5874 C.ar    1  UNL1        0.2626
     23 H          17.0869   70.3627  -10.3865 H       1  UNL1        0.1734
     24 O          21.7281   72.4365   -1.9675 O.3     1  UNL1       -0.2703
     25 P          23.3314   72.4150   -2.1736 P.3     1  UNL1        0.2208
     26 O          23.5350   73.2014   -3.5738 O.co2   1  UNL1       -0.4371
     27 O          23.9380   71.0420   -2.1416 O.2     1  UNL1       -0.5170
     28 O          23.9018   73.4252   -1.0526 O.3     1  UNL1       -0.2858
     29 O          23.0997   72.6428    1.0340 O.3     1  UNL1       -0.3226
     30 O          25.3833   75.8908    2.1755 O.3     1  UNL1       -0.3794
     31 O          23.6494   76.0508   -0.1702 O.3     1  UNL1       -0.3775
     32 O          26.3859   73.1910    2.5710 O.3     1  UNL1       -0.3792
     33 C          25.0227   74.7710    1.3668 C.3     1  UNL1        0.1718
     34 C          23.6284   74.9916    0.7797 C.3     1  UNL1        0.1968
     35 C          25.0358   73.5237    2.2533 C.3     1  UNL1        0.1723
     36 C          23.1143   73.7222    0.0991 C.3     1  UNL1        0.2706
     37 C          24.3928   72.3327    1.5487 C.3     1  UNL1        0.1830
     38 H          25.3817   76.6954    1.6333 H       1  UNL1        0.2105
     39 H          23.9749   76.8593    0.2549 H       1  UNL1        0.2106
     40 H          26.8067   73.9408    3.0198 H       1  UNL1        0.2106
     41 O          24.8574   70.1358    2.2263 O.co2   1  UNL1       -0.5466
     42 O          23.3246   71.2993    3.4494 O.co2   1  UNL1       -0.5466
     43 C          24.1126   71.2308    2.5180 C.2     1  UNL1        0.0799
@<TRIPOS>UNITY_ATOM_ATTR
2 1
charge -1
26 1
charge -1
41 1
charge -1
@<TRIPOS>BOND
     1     1     4    1
     2     1    24    1
     3     1     2    1
     4     1     3    2
     5    25    28    1
     6    25    24    1
     7    25    26    1
     8    25    27    2
     9     6    11    1
    10     6    12    1
    11    29    36    1
    12    29    37    1
    13     7     9    1
    14     7    13    1
    15     8    10    1
    16     8    14    1
    17     4     5    1
    18    28    36    1
    19    30    33    1
    20    30    38    1
    21    31    34    1
    22    31    39    1
    23    32    35    1
    24    32    40    1
    25    41    43   ar
    26    15    19    2
    27    42    43   ar
    28    16    22    2
    29    17    12    1
    30    17    19   ar
    31    17    20   ar
    32    18    19   ar
    33    18    22   ar
    34    18    23    1
    35     9    10    1
    36     9    11    1
    37    10    12    1
    38    11     5    1
    39    33    34    1
    40    33    35    1
    41    34    36    1
    42    35    37    1
    43    37    43    1
    44    20    21   ar
    45    21    22   ar
@<TRIPOS>MOLECULE
*****
 43 45 0 0 0
SMALL
GASTEIGER

@<TRIPOS>ATOM
      1 P          21.5632   72.6952   -2.2977 P.3     1  UNL1        0.2189
      2 O          20.4444   73.7271   -1.7480 O.co2   1  UNL1       -0.4371
      3 O          22.9489   73.2610   -2.4047 O.2     1  UNL1       -0.5170
      4 O          20.9272   72.1293   -3.6737 O.3     1  UNL1       -0.3112
      5 C          20.2043   70.9126   -3.6342 C.3     1  UNL1        0.1811
      6 O          18.2929   71.7911   -4.7972 O.3     1  UNL1       -0.3308
      7 O          16.6273   70.3979   -2.7293 O.3     1  UNL1       -0.3794
      8 O          16.4664   68.7067   -4.8623 O.3     1  UNL1       -0.3779
      9 C          17.8552   69.9844   -3.3291 C.3     1  UNL1        0.1713
     10 C          17.6145   69.5215   -4.7504 C.3     1  UNL1        0.1895
     11 C          18.7159   71.2228   -3.5389 C.3     1  UNL1        0.1764
     12 C          17.4703   70.8399   -5.4914 C.3     1  UNL1        0.2383
     13 H          16.0605   69.6235   -2.5855 H       1  UNL1        0.2105
     14 H          16.6080   67.8798   -4.3743 H       1  UNL1        0.2106
     15 O          15.8013   70.1391   -7.6593 O.2     1  UNL1       -0.2464
     16 O          19.2563   70.5352  -10.6841 O.2     1  UNL1       -0.2670
     17 N          17.9077   70.7523   -6.8559 N.ar    1  UNL1       -0.2551
     18 N          17.5239   70.3361   -9.1636 N.ar    1  UNL1       -0.2743
     19 C          16.9891   70.3915   -7.8698 C.ar    1  UNL1        0.3323
     20 C          19.2319   71.0235   -7.1785 C.ar    1  UNL1        0.0869
     21 C          19.7269   70.9666   -8.4164 C.ar    1  UNL1        0.0795
     22 C          18.8335   70.5964   -9.5336 C.ar    1  UNL1        0.2626
     23 H          16.9039   70.0851   -9.8861 H       1  UNL1        0.1734
     24 O          21.4248   71.4391   -1.2898 O.3     1  UNL1       -0.2703
     25 P          22.0731   71.1703    0.1666 P.3     1  UNL1        0.2208
     26 O          23.6532   71.0243   -0.1531 O.co2   1  UNL1       -0.4371
     27 O          21.4797   70.0016    0.8987 O.2     1  UNL1       -0.5170
     28 O          21.9426   72.5805    0.9392 O.3     1  UNL1       -0.2858
     29 O          23.0124   74.5689    1.6541 O.3     1  UNL1       -0.3226
     30 O          22.3833   72.6166    5.2403 O.3     1  UNL1       -0.3794
     31 O          23.3026   71.1412    2.8924 O.3     1  UNL1       -0.3775
     32 O          20.7010   74.8650    4.4882 O.3     1  UNL1       -0.3792
     33 C          22.0961   72.9928    3.8934 C.3     1  UNL1        0.1718
     34 C          23.2469   72.5600    2.9847 C.3     1  UNL1        0.1968
     35 C          21.9286   74.5134    3.8527 C.3     1  UNL1        0.1723
     36 C          23.0850   73.1445    1.5808 C.3     1  UNL1        0.2706
     37 C          21.9013   75.0325    2.4180 C.3     1  UNL1        0.1830
     38 H          22.4939   71.6540    5.2907 H       1  UNL1        0.2105
     39 H          23.4050   70.7636    3.7797 H       1  UNL1        0.2106
     40 H          20.7055   74.5401    5.4022 H       1  UNL1        0.2106
     41 O          22.7363   76.9004    1.2710 O.co2   1  UNL1       -0.5466
     42 O          21.6628   77.2865    3.2453 O.co2   1  UNL1       -0.5466
     43 C          22.0693   76.5168    2.3877 C.2     1  UNL1        0.0799
@<TRIPOS>UNITY_ATOM_ATTR
2 1
charge -1
26 1
charge -1
41 1
charge -1
@<TRIPOS>BOND
     1     1     4    1
     2     1    24    1
     3     1     2    1
     4     1     3    2
     5    25    28    1
     6    25    24    1
     7    25    26    1
     8    25    27    2
     9     6    11    1
    10     6    12    1
    11    29    36    1
    12    29    37    1
    13     7     9    1
    14     7    13    1
    15     8    10    1
    16     8    14    1
    17     4     5    1
    18    28    36    1
    19    30    33    1
    20    30    38    1
    21    31    34    1
    22    31    39    1
    23    32    35    1
    24    32    40    1
    25    41    43   ar
    26    15    19    2
    27    42    43   ar
    28    16    22    2
    29    17    12    1
    30    17    19   ar
    31    17    20   ar
    32    18    19   ar
    33    18    22   ar
    34    18    23    1
    35     9    10    1
    36     9    11    1
    37    10    12    1
    38    11     5    1
    39    33    34    1
    40    33    35    1
    41    34    36    1
    42    35    37    1
    43    37    43    1
    44    20    21   ar
    45    21    22   ar
@<TRIPOS>MOLECULE
*****
 43 45 0 0 0
SMALL
GASTEIGER

@<TRIPOS>ATOM
      1 P          20.9815   71.4027   -1.5878 P.3     1  UNL1        0.2189
      2 O          21.8165   70.4976   -2.6377 O.co2   1  UNL1       -0.4371
      3 O          20.5707   70.6965   -0.3291 O.2     1  UNL1       -0.5170
      4 O          19.7752   72.0146   -2.4758 O.3     1  UNL1       -0.3112
      5 C          19.3424   71.2950   -3.6157 C.3     1  UNL1        0.1811
      6 O          17.5753   71.9174   -5.1216 O.3     1  UNL1       -0.3308
      7 O          15.7204   70.5144   -3.2289 O.3     1  UNL1       -0.3794
      8 O          16.0363   68.6808   -5.2224 O.3     1  UNL1       -0.3779
      9 C          17.0571   70.1772   -3.6004 C.3     1  UNL1        0.1713
     10 C          17.0828   69.6030   -5.0011 C.3     1  UNL1        0.1895
     11 C          17.8378   71.4730   -3.7729 C.3     1  UNL1        0.1764
     12 C          16.9525   70.8518   -5.8563 C.3     1  UNL1        0.2383
     13 H          15.2020   69.7023   -3.1129 H       1  UNL1        0.2105
     14 H          16.1648   67.9038   -4.6552 H       1  UNL1        0.2106
     15 O          15.6042   70.6313   -8.3281 O.2     1  UNL1       -0.2464
     16 O          19.5635   70.3365  -10.6693 O.2     1  UNL1       -0.2670
     17 N          17.6064   70.7164   -7.1271 N.ar    1  UNL1       -0.2551
     18 N          17.5774   70.4837   -9.4917 N.ar    1  UNL1       -0.2743
     19 C          16.8363   70.6127   -8.3097 C.ar    1  UNL1        0.3323
     20 C          18.9941   70.6889   -7.1936 C.ar    1  UNL1        0.0869
     21 C          19.6863   70.5655   -8.3278 C.ar    1  UNL1        0.0795
     22 C          18.9576   70.4508   -9.6081 C.ar    1  UNL1        0.2626
     23 H          17.0631   70.4079  -10.3278 H       1  UNL1        0.1734
     24 O          21.9478   72.6782   -1.3595 O.3     1  UNL1       -0.2703
     25 P          21.6836   74.0911   -0.6196 P.3     1  UNL1        0.2208
     26 O          20.0959   74.3272   -0.8292 O.co2   1  UNL1       -0.4371
     27 O          22.5466   75.2159   -1.1137 O.2     1  UNL1       -0.5170
     28 O          21.8428   73.7660    0.9525 O.3     1  UNL1       -0.2858
     29 O          24.0796   73.1790    1.4638 O.3     1  UNL1       -0.3226
     30 O          22.2059   72.5983    5.0997 O.3     1  UNL1       -0.3794
     31 O          20.9247   71.7375    2.6194 O.3     1  UNL1       -0.3775
     32 O          23.8720   74.9423    4.6747 O.3     1  UNL1       -0.3792
     33 C          22.4240   73.2121    3.8294 C.3     1  UNL1        0.1718
     34 C          22.2775   72.1662    2.7239 C.3     1  UNL1        0.1968
     35 C          23.8376   73.7981    3.8238 C.3     1  UNL1        0.1723
     36 C          22.7271   72.7294    1.3750 C.3     1  UNL1        0.2706
     37 C          24.2596   74.2215    2.4198 C.3     1  UNL1        0.1830
     38 H          21.3135   72.2186    5.1267 H       1  UNL1        0.2105
     39 H          20.6328   71.3792    3.4719 H       1  UNL1        0.2106
     40 H          23.6053   74.6865    5.5715 H       1  UNL1        0.2106
     41 O          25.9835   75.6859    1.7992 O.co2   1  UNL1       -0.5466
     42 O          26.5924   73.7137    2.7681 O.co2   1  UNL1       -0.5466
     43 C          25.7302   74.4788    2.3628 C.2     1  UNL1        0.0799
@<TRIPOS>UNITY_ATOM_ATTR
2 1
charge -1
26 1
charge -1
41 1
charge -1
@<TRIPOS>BOND
     1     1     4    1
     2     1    24    1
     3     1     2    1
     4     1     3    2
     5    25    28    1
     6    25    24    1
     7    25    26    1
     8    25    27    2
     9     6    11    1
    10     6    12    1
    11    29    36    1
    12    29    37    1
    13     7     9    1
    14     7    13    1
    15     8    10    1
    16     8    14    1
    17     4     5    1
    18    28    36    1
    19    30    33    1
    20    30    38    1
    21    31    34    1
    22    31    39    1
    23    32    35    1
    24    32    40    1
    25    41    43   ar
    26    15    19    2
    27    42    43   ar
    28    16    22    2
    29    17    12    1
    30    17    19   ar
    31    17    20   ar
    32    18    19   ar
    33    18    22   ar
    34    18    23    1
    35     9    10    1
    36     9    11    1
    37    10    12    1
    38    11     5    1
    39    33    34    1
    40    33    35    1
    41    34    36    1
    42    35    37    1
    43    37    43    1
    44    20    21   ar
    45    21    22   ar
@<TRIPOS>MOLECULE
*****
 43 45 0 0 0
SMALL
GASTEIGER

@<TRIPOS>ATOM
      1 P          23.1590   72.4928   -3.5350 P.3     1  UNL1        0.2189
      2 O          23.1072   70.9748   -2.9765 O.co2   1  UNL1       -0.4371
      3 O          24.4266   72.8628   -4.2478 O.2     1  UNL1       -0.5170
      4 O          22.7903   73.3947   -2.2433 O.3     1  UNL1       -0.3112
      5 C          21.7348   74.3320   -2.3521 C.3     1  UNL1        0.1811
      6 O          20.9577   72.6467   -0.8245 O.3     1  UNL1       -0.3308
      7 O          18.8442   74.6155   -0.0192 O.3     1  UNL1       -0.3794
      8 O          20.6632   74.8346    2.0006 O.3     1  UNL1       -0.3779
      9 C          20.2038   74.8493   -0.3871 C.3     1  UNL1        0.1713
     10 C          21.1303   74.4243    0.7324 C.3     1  UNL1        0.1895
     11 C          20.5672   73.8664   -1.4917 C.3     1  UNL1        0.1764
     12 C          21.1432   72.9134    0.5748 C.3     1  UNL1        0.2383
     13 H          18.5891   75.2320    0.6855 H       1  UNL1        0.2105
     14 H          20.6743   75.8038    2.0511 H       1  UNL1        0.2106
     15 O          21.5228   70.1570    1.0591 O.2     1  UNL1       -0.2464
     16 O          25.9426   70.7813    2.2079 O.2     1  UNL1       -0.2670
     17 N          22.3829   72.3285    1.0013 N.ar    1  UNL1       -0.2551
     18 N          23.7235   70.4707    1.6318 N.ar    1  UNL1       -0.2743
     19 C          22.4676   70.9326    1.2167 C.ar    1  UNL1        0.3323
     20 C          23.4976   73.1340    1.2001 C.ar    1  UNL1        0.0869
     21 C          24.6882   72.6791    1.5958 C.ar    1  UNL1        0.0795
     22 C          24.8610   71.2327    1.8437 C.ar    1  UNL1        0.2626
     23 H          23.8064   69.5025    1.7902 H       1  UNL1        0.1734
     24 O          21.8237   72.5920   -4.4405 O.3     1  UNL1       -0.2703
     25 P          21.6161   73.0397   -5.9800 P.3     1  UNL1        0.2208
     26 O          22.7811   72.2313   -6.7606 O.co2   1  UNL1       -0.4371
     27 O          21.6413   74.5249   -6.1981 O.2     1  UNL1       -0.5170
     28 O          20.2460   72.3195   -6.4345 O.3     1  UNL1       -0.2858
     29 O          19.6363   70.1439   -5.7244 O.3     1  UNL1       -0.3226
     30 O          17.3795   70.5706   -9.1584 O.3     1  UNL1       -0.3794
     31 O          20.1531   71.4849   -9.0861 O.3     1  UNL1       -0.3775
     32 O          16.1206   70.7950   -6.5477 O.3     1  UNL1       -0.3792
     33 C          18.0490   71.0089   -7.9762 C.3     1  UNL1        0.1718
     34 C          19.5394   70.6849   -8.0822 C.3     1  UNL1        0.1968
     35 C          17.4289   70.2781   -6.7831 C.3     1  UNL1        0.1723
     36 C          20.2482   70.9281   -6.7491 C.3     1  UNL1        0.2706
     37 C          18.2628   70.4674   -5.5193 C.3     1  UNL1        0.1830
     38 H          17.7568   71.0218   -9.9300 H       1  UNL1        0.2105
     39 H          19.7081   71.3358   -9.9347 H       1  UNL1        0.2106
     40 H          15.5796   70.6809   -7.3447 H       1  UNL1        0.2106
     41 O          18.8639   69.2706   -3.5936 O.co2   1  UNL1       -0.5466
     42 O          16.7402   68.9872   -4.3738 O.co2   1  UNL1       -0.5466
     43 C          17.8454   69.5013   -4.4587 C.2     1  UNL1        0.0799
@<TRIPOS>UNITY_ATOM_ATTR
2 1
charge -1
26 1
charge -1
41 1
charge -1
@<TRIPOS>BOND
     1     1     4    1
     2     1    24    1
     3     1     2    1
     4     1     3    2
     5    25    28    1
     6    25    24    1
     7    25    26    1
     8    25    27    2
     9     6    11    1
    10     6    12    1
    11    29    36    1
    12    29    37    1
    13     7     9    1
    14     7    13    1
    15     8    10    1
    16     8    14    1
    17     4     5    1
    18    28    36    1
    19    30    33    1
    20    30    38    1
    21    31    34    1
    22    31    39    1
    23    32    35    1
    24    32    40    1
    25    41    43   ar
    26    15    19    2
    27    42    43   ar
    28    16    22    2
    29    17    12    1
    30    17    19   ar
    31    17    20   ar
    32    18    19   ar
    33    18    22   ar
    34    18    23    1
    35     9    10    1
    36     9    11    1
    37    10    12    1
    38    11     5    1
    39    33    34    1
    40    33    35    1
    41    34    36    1
    42    35    37    1
    43    37    43    1
    44    20    21   ar
    45    21    22   ar
@<TRIPOS>MOLECULE
*****
 43 45 0 0 0
SMALL
GASTEIGER

@<TRIPOS>ATOM
      1 P          21.0059   71.8321   -2.7751 P.3     1  UNL1        0.2189
      2 O          21.0231   70.4258   -3.5756 O.co2   1  UNL1       -0.4371
      3 O          21.6802   71.8064   -1.4348 O.2     1  UNL1       -0.5170
      4 O          19.4444   72.2560   -2.7680 O.3     1  UNL1       -0.3112
      5 C          18.8497   72.6666   -3.9854 C.3     1  UNL1        0.1811
      6 O          17.0061   72.1161   -5.4262 O.3     1  UNL1       -0.3308
      7 O          15.9381   70.5042   -3.1343 O.3     1  UNL1       -0.3794
      8 O          17.0517   68.5983   -4.7353 O.3     1  UNL1       -0.3779
      9 C          17.2907   70.7050   -3.5450 C.3     1  UNL1        0.1713
     10 C          17.5823   69.9056   -4.7973 C.3     1  UNL1        0.1895
     11 C          17.4225   72.1376   -4.0436 C.3     1  UNL1        0.1764
     12 C          16.9247   70.7533   -5.8729 C.3     1  UNL1        0.2383
     13 H          15.8293   69.5955   -2.8116 H       1  UNL1        0.2105
     14 H          17.5031   68.0990   -4.0361 H       1  UNL1        0.2106
     15 O          15.5930   70.6634   -8.3618 O.2     1  UNL1       -0.2464
     16 O          19.5616   70.3084  -10.6787 O.2     1  UNL1       -0.2670
     17 N          17.5855   70.6377   -7.1421 N.ar    1  UNL1       -0.2551
     18 N          17.5708   70.4856   -9.5133 N.ar    1  UNL1       -0.2743
     19 C          16.8235   70.6009   -8.3338 C.ar    1  UNL1        0.3323
     20 C          18.9719   70.5638   -7.1979 C.ar    1  UNL1        0.0869
     21 C          19.6702   70.4542   -8.3299 C.ar    1  UNL1        0.0795
     22 C          18.9501   70.4082   -9.6193 C.ar    1  UNL1        0.2626
     23 H          17.0622   70.4560  -10.3558 H       1  UNL1        0.1734
     24 O          21.6572   72.8621   -3.8369 O.3     1  UNL1       -0.2703
     25 P          22.9565   72.7246   -4.7891 P.3     1  UNL1        0.2208
     26 O          22.4300   71.7887   -6.0004 O.co2   1  UNL1       -0.4371
     27 O          24.1791   72.2030   -4.0911 O.2     1  UNL1       -0.5170
     28 O          23.1353   74.1849   -5.4510 O.3     1  UNL1       -0.2858
     29 O          21.6030   75.9281   -5.9224 O.3     1  UNL1       -0.3226
     30 O          24.1776   76.1779   -9.1438 O.3     1  UNL1       -0.3794
     31 O          23.2835   73.5761   -8.1609 O.3     1  UNL1       -0.3775
     32 O          24.3395   78.1258   -6.9920 O.3     1  UNL1       -0.3792
     33 C          23.8048   75.9165   -7.7907 C.3     1  UNL1        0.1718
     34 C          22.7347   74.8251   -7.7565 C.3     1  UNL1        0.1968
     35 C          23.2602   77.2149   -7.1911 C.3     1  UNL1        0.1723
     36 C          22.1465   74.6794   -6.3523 C.3     1  UNL1        0.2706
     37 C          22.5784   76.9656   -5.8489 C.3     1  UNL1        0.1830
     38 H          24.5267   75.3667   -9.5456 H       1  UNL1        0.2105
     39 H          23.6588   73.6614   -9.0510 H       1  UNL1        0.2106
     40 H          24.7821   78.2928   -7.8388 H       1  UNL1        0.2106
     41 O          21.5404   78.9678   -6.4933 O.co2   1  UNL1       -0.5466
     42 O          21.3740   78.3693   -4.2995 O.co2   1  UNL1       -0.5466
     43 C          21.7734   78.1540   -5.4340 C.2     1  UNL1        0.0799
@<TRIPOS>UNITY_ATOM_ATTR
2 1
charge -1
26 1
charge -1
41 1
charge -1
@<TRIPOS>BOND
     1     1     4    1
     2     1    24    1
     3     1     2    1
     4     1     3    2
     5    25    28    1
     6    25    24    1
     7    25    26    1
     8    25    27    2
     9     6    11    1
    10     6    12    1
    11    29    36    1
    12    29    37    1
    13     7     9    1
    14     7    13    1
    15     8    10    1
    16     8    14    1
    17     4     5    1
    18    28    36    1
    19    30    33    1
    20    30    38    1
    21    31    34    1
    22    31    39    1
    23    32    35    1
    24    32    40    1
    25    41    43   ar
    26    15    19    2
    27    42    43   ar
    28    16    22    2
    29    17    12    1
    30    17    19   ar
    31    17    20   ar
    32    18    19   ar
    33    18    22   ar
    34    18    23    1
    35     9    10    1
    36     9    11    1
    37    10    12    1
    38    11     5    1
    39    33    34    1
    40    33    35    1
    41    34    36    1
    42    35    37    1
    43    37    43    1
    44    20    21   ar
    45    21    22   ar
@<TRIPOS>MOLECULE
*****
 43 45 0 0 0
SMALL
GASTEIGER

@<TRIPOS>ATOM
      1 P          21.4768   72.0929   -1.8133 P.3     1  UNL1        0.2189
      2 O          21.2168   73.5891   -2.3722 O.co2   1  UNL1       -0.4371
      3 O          22.8064   71.5017   -2.1801 O.2     1  UNL1       -0.5170
      4 O          20.1787   71.2627   -2.3067 O.3     1  UNL1       -0.3112
      5 C          19.7472   71.4160   -3.6464 C.3     1  UNL1        0.1811
      6 O          17.8250   71.9460   -4.9887 O.3     1  UNL1       -0.3308
      7 O          16.2171   70.4558   -2.9428 O.3     1  UNL1       -0.3794
      8 O          16.4469   68.6362   -4.9607 O.3     1  UNL1       -0.3779
      9 C          17.5310   70.1852   -3.4318 C.3     1  UNL1        0.1713
     10 C          17.4614   69.6101   -4.8306 C.3     1  UNL1        0.1895
     11 C          18.2275   71.5181   -3.6696 C.3     1  UNL1        0.1764
     12 C          17.1937   70.8490   -5.6680 C.3     1  UNL1        0.2383
     13 H          15.7524   69.6190   -2.7833 H       1  UNL1        0.2105
     14 H          16.6638   67.8678   -4.4090 H       1  UNL1        0.2106
     15 O          15.6554   70.4095   -7.9955 O.2     1  UNL1       -0.2464
     16 O          19.3909   70.4626  -10.6950 O.2     1  UNL1       -0.2670
     17 N          17.7386   70.7438   -6.9920 N.ar    1  UNL1       -0.2551
     18 N          17.5174   70.4353   -9.3377 N.ar    1  UNL1       -0.2743
     19 C          16.8787   70.5222   -8.0936 C.ar    1  UNL1        0.3323
     20 C          19.1090   70.8615   -7.1893 C.ar    1  UNL1        0.0869
     21 C          19.7032   70.7766   -8.3811 C.ar    1  UNL1        0.0795
     22 C          18.8765   70.5452   -9.5838 C.ar    1  UNL1        0.2626
     23 H          16.9397   70.2793  -10.1194 H       1  UNL1        0.1734
     24 O          21.2252   72.2502   -0.2243 O.3     1  UNL1       -0.2703
     25 P          21.9482   71.5477    1.0395 P.3     1  UNL1        0.2208
     26 O          23.4983   71.9810    0.8668 O.co2   1  UNL1       -0.4371
     27 O          21.7269   70.0655    1.1300 O.2     1  UNL1       -0.5170
     28 O          21.4329   72.3810    2.3211 O.3     1  UNL1       -0.2858
     29 O          20.9664   74.6665    2.7312 O.3     1  UNL1       -0.3226
     30 O          22.7635   73.5268    6.2723 O.3     1  UNL1       -0.3794
     31 O          23.8312   72.6167    3.7098 O.3     1  UNL1       -0.3775
     32 O          19.8823   73.8940    6.1503 O.3     1  UNL1       -0.3792
     33 C          21.9780   73.3495    5.0935 C.3     1  UNL1        0.1718
     34 C          22.8377   73.6243    3.8595 C.3     1  UNL1        0.1968
     35 C          20.8054   74.3310    5.1546 C.3     1  UNL1        0.1723
     36 C          21.9799   73.6698    2.5942 C.3     1  UNL1        0.2706
     37 C          20.0769   74.4125    3.8162 C.3     1  UNL1        0.1830
     38 H          23.5149   72.9133    6.2556 H       1  UNL1        0.2105
     39 H          24.3790   72.5821    4.5092 H       1  UNL1        0.2106
     40 H          20.3335   73.8377    7.0071 H       1  UNL1        0.2106
     41 O          17.9603   75.2819    4.3316 O.co2   1  UNL1       -0.5466
     42 O          19.4461   76.6891    3.3261 O.co2   1  UNL1       -0.5466
     43 C          19.1606   75.5921    3.7821 C.2     1  UNL1        0.0799
@<TRIPOS>UNITY_ATOM_ATTR
2 1
charge -1
26 1
charge -1
41 1
charge -1
@<TRIPOS>BOND
     1     1     4    1
     2     1    24    1
     3     1     2    1
     4     1     3    2
     5    25    28    1
     6    25    24    1
     7    25    26    1
     8    25    27    2
     9     6    11    1
    10     6    12    1
    11    29    36    1
    12    29    37    1
    13     7     9    1
    14     7    13    1
    15     8    10    1
    16     8    14    1
    17     4     5    1
    18    28    36    1
    19    30    33    1
    20    30    38    1
    21    31    34    1
    22    31    39    1
    23    32    35    1
    24    32    40    1
    25    41    43   ar
    26    15    19    2
    27    42    43   ar
    28    16    22    2
    29    17    12    1
    30    17    19   ar
    31    17    20   ar
    32    18    19   ar
    33    18    22   ar
    34    18    23    1
    35     9    10    1
    36     9    11    1
    37    10    12    1
    38    11     5    1
    39    33    34    1
    40    33    35    1
    41    34    36    1
    42    35    37    1
    43    37    43    1
    44    20    21   ar
    45    21    22   ar
@<TRIPOS>MOLECULE
*****
 43 45 0 0 0
SMALL
GASTEIGER

@<TRIPOS>ATOM
      1 P          23.1244   71.8110   -2.6986 P.3     1  UNL1        0.2189
      2 O          24.1717   70.7146   -3.2641 O.co2   1  UNL1       -0.4371
      3 O          23.6239   73.2260   -2.7040 O.2     1  UNL1       -0.5170
      4 O          22.6900   71.2247   -1.2544 O.3     1  UNL1       -0.3112
      5 C          23.5795   71.3844   -0.1646 C.3     1  UNL1        0.1811
      6 O          23.6061   71.9545    2.1704 O.3     1  UNL1       -0.3308
      7 O          21.7678   74.2111    1.4496 O.3     1  UNL1       -0.3794
      8 O          24.1822   75.4584    1.6755 O.3     1  UNL1       -0.3779
      9 C          22.8583   73.6623    0.7093 C.3     1  UNL1        0.1713
     10 C          24.1753   74.0915    1.3204 C.3     1  UNL1        0.1895
     11 C          22.8743   72.1577    0.9422 C.3     1  UNL1        0.1764
     12 C          24.2775   73.1734    2.5264 C.3     1  UNL1        0.2383
     13 H          21.7371   75.1719    1.3164 H       1  UNL1        0.2105
     14 H          24.1155   76.0011    0.8737 H       1  UNL1        0.2106
     15 O          25.9427   74.8623    4.0598 O.2     1  UNL1       -0.2464
     16 O          29.4801   71.9195    3.7944 O.2     1  UNL1       -0.2670
     17 N          25.6379   72.8731    2.8729 N.ar    1  UNL1       -0.2551
     18 N          27.7033   73.3955    3.9253 N.ar    1  UNL1       -0.2743
     19 C          26.3878   73.7896    3.6473 C.ar    1  UNL1        0.3323
     20 C          26.2150   71.6824    2.4485 C.ar    1  UNL1        0.0869
     21 C          27.4701   71.3205    2.7215 C.ar    1  UNL1        0.0795
     22 C          28.3217   72.2221    3.5249 C.ar    1  UNL1        0.2626
     23 H          28.2456   74.0183    4.4613 H       1  UNL1        0.1734
     24 O          21.8095   71.5577   -3.6040 O.3     1  UNL1       -0.2703
     25 P          20.2574   71.9317   -3.3496 P.3     1  UNL1        0.2208
     26 O          20.3284   73.4542   -2.8044 O.co2   1  UNL1       -0.4371
     27 O          19.5364   70.9815   -2.4380 O.2     1  UNL1       -0.5170
     28 O          19.6194   72.0573   -4.8260 O.3     1  UNL1       -0.2858
     29 O          18.7157   69.9197   -5.2986 O.3     1  UNL1       -0.3226
     30 O          17.5691   72.0731   -8.6327 O.3     1  UNL1       -0.3794
     31 O          20.2493   72.3905   -7.5145 O.3     1  UNL1       -0.3775
     32 O          15.6258   71.4395   -6.5655 O.3     1  UNL1       -0.3792
     33 C          17.8924   71.8763   -7.2562 C.3     1  UNL1        0.1718
     34 C          19.3307   71.3721   -7.1353 C.3     1  UNL1        0.1968
     35 C          16.9170   70.8452   -6.6841 C.3     1  UNL1        0.1723
     36 C          19.6377   70.9325   -5.7031 C.3     1  UNL1        0.2706
     37 C          17.3607   70.3634   -5.3058 C.3     1  UNL1        0.1830
     38 H          18.1761   72.7247   -9.0176 H       1  UNL1        0.2105
     39 H          20.0601   72.6744   -8.4223 H       1  UNL1        0.2106
     40 H          15.3319   71.7505   -7.4360 H       1  UNL1        0.2106
     41 O          16.2569   69.2007   -3.5938 O.co2   1  UNL1       -0.5466
     42 O          16.3311   68.2079   -5.6451 O.co2   1  UNL1       -0.5466
     43 C          16.6047   69.1393   -4.9030 C.2     1  UNL1        0.0799
@<TRIPOS>UNITY_ATOM_ATTR
2 1
charge -1
26 1
charge -1
41 1
charge -1
@<TRIPOS>BOND
     1     1     4    1
     2     1    24    1
     3     1     2    1
     4     1     3    2
     5    25    28    1
     6    25    24    1
     7    25    26    1
     8    25    27    2
     9     6    11    1
    10     6    12    1
    11    29    36    1
    12    29    37    1
    13     7     9    1
    14     7    13    1
    15     8    10    1
    16     8    14    1
    17     4     5    1
    18    28    36    1
    19    30    33    1
    20    30    38    1
    21    31    34    1
    22    31    39    1
    23    32    35    1
    24    32    40    1
    25    41    43   ar
    26    15    19    2
    27    42    43   ar
    28    16    22    2
    29    17    12    1
    30    17    19   ar
    31    17    20   ar
    32    18    19   ar
    33    18    22   ar
    34    18    23    1
    35     9    10    1
    36     9    11    1
    37    10    12    1
    38    11     5    1
    39    33    34    1
    40    33    35    1
    41    34    36    1
    42    35    37    1
    43    37    43    1
    44    20    21   ar
    45    21    22   ar
@<TRIPOS>MOLECULE
*****
 43 45 0 0 0
SMALL
GASTEIGER

@<TRIPOS>ATOM
      1 P          23.3969   72.2120   -3.3611 P.3     1  UNL1        0.2189
      2 O          24.0506   70.7479   -3.1424 O.co2   1  UNL1       -0.4371
      3 O          23.8092   72.9075   -4.6252 O.2     1  UNL1       -0.5170
      4 O          23.7320   72.9964   -1.9862 O.3     1  UNL1       -0.3112
      5 C          22.7644   72.9929   -0.9527 C.3     1  UNL1        0.1811
      6 O          24.0347   71.4296    0.3588 O.3     1  UNL1       -0.3308
      7 O          21.4155   70.1096    0.9826 O.3     1  UNL1       -0.3794
      8 O          21.9021   71.5634    3.2377 O.3     1  UNL1       -0.3779
      9 C          21.7112   71.4962    0.8146 C.3     1  UNL1        0.1713
     10 C          22.4561   72.0234    2.0228 C.3     1  UNL1        0.1895
     11 C          22.7567   71.6238   -0.2849 C.3     1  UNL1        0.1764
     12 C          23.8600   71.4948    1.7831 C.3     1  UNL1        0.2383
     13 H          20.7496   70.0028    1.6803 H       1  UNL1        0.2105
     14 H          21.0087   71.9276    3.3441 H       1  UNL1        0.2106
     15 O          23.4857   74.2324    2.3681 O.2     1  UNL1       -0.2464
     16 O          27.8052   74.6805    3.9126 O.2     1  UNL1       -0.2670
     17 N          24.8700   72.3505    2.3386 N.ar    1  UNL1       -0.2551
     18 N          25.6377   74.4532    3.1358 N.ar    1  UNL1       -0.2743
     19 C          24.5794   73.7114    2.5947 C.ar    1  UNL1        0.3323
     20 C          26.1303   71.8403    2.6254 C.ar    1  UNL1        0.0869
     21 C          27.1289   72.5597    3.1411 C.ar    1  UNL1        0.0795
     22 C          26.9083   73.9904    3.4375 C.ar    1  UNL1        0.2626
     23 H          25.4600   75.4037    3.3208 H       1  UNL1        0.1734
     24 O          21.8112   71.9236   -3.2377 O.3     1  UNL1       -0.2703
     25 P          20.5334   72.8479   -3.5932 P.3     1  UNL1        0.2208
     26 O          21.1645   74.3364   -3.6735 O.co2   1  UNL1       -0.4371
     27 O          19.3887   72.7126   -2.6313 O.2     1  UNL1       -0.5170
     28 O          20.1717   72.4762   -5.1208 O.3     1  UNL1       -0.2858
     29 O          19.0153   70.4532   -5.5445 O.3     1  UNL1       -0.3226
     30 O          20.3938   71.4387   -9.3124 O.3     1  UNL1       -0.3794
     31 O          22.1167   71.7580   -6.9748 O.3     1  UNL1       -0.3775
     32 O          17.5965   71.8404   -8.6308 O.3     1  UNL1       -0.3792
     33 C          19.9150   71.6939   -7.9919 C.3     1  UNL1        0.1718
     34 C          20.8698   71.0724   -6.9723 C.3     1  UNL1        0.1968
     35 C          18.5226   71.0717   -7.8653 C.3     1  UNL1        0.1723
     36 C          20.2757   71.1243   -5.5640 C.3     1  UNL1        0.2706
     37 C          18.0533   71.0470   -6.4135 C.3     1  UNL1        0.1830
     38 H          21.2777   71.8249   -9.4163 H       1  UNL1        0.2105
     39 H          22.4992   71.7292   -7.8655 H       1  UNL1        0.2106
     40 H          17.8837   71.8642   -9.5569 H       1  UNL1        0.2106
     41 O          16.6744   69.8381   -4.9511 O.co2   1  UNL1       -0.5466
     42 O          16.1530   69.7671   -7.1697 O.co2   1  UNL1       -0.5466
     43 C          16.8639   70.1568   -6.2555 C.2     1  UNL1        0.0799
@<TRIPOS>UNITY_ATOM_ATTR
2 1
charge -1
26 1
charge -1
41 1
charge -1
@<TRIPOS>BOND
     1     1     4    1
     2     1    24    1
     3     1     2    1
     4     1     3    2
     5    25    28    1
     6    25    24    1
     7    25    26    1
     8    25    27    2
     9     6    11    1
    10     6    12    1
    11    29    36    1
    12    29    37    1
    13     7     9    1
    14     7    13    1
    15     8    10    1
    16     8    14    1
    17     4     5    1
    18    28    36    1
    19    30    33    1
    20    30    38    1
    21    31    34    1
    22    31    39    1
    23    32    35    1
    24    32    40    1
    25    41    43   ar
    26    15    19    2
    27    42    43   ar
    28    16    22    2
    29    17    12    1
    30    17    19   ar
    31    17    20   ar
    32    18    19   ar
    33    18    22   ar
    34    18    23    1
    35     9    10    1
    36     9    11    1
    37    10    12    1
    38    11     5    1
    39    33    34    1
    40    33    35    1
    41    34    36    1
    42    35    37    1
    43    37    43    1
    44    20    21   ar
    45    21    22   ar
@<TRIPOS>MOLECULE
*****
 43 45 0 0 0
SMALL
GASTEIGER

@<TRIPOS>ATOM
      1 P          23.5231   72.3457   -3.5283 P.3     1  UNL1        0.2189
      2 O          23.9928   70.8517   -3.1205 O.co2   1  UNL1       -0.4371
      3 O          24.5677   73.1715   -4.2203 O.2     1  UNL1       -0.5170
      4 O          22.9416   72.9602   -2.1492 O.3     1  UNL1       -0.3112
      5 C          21.7790   72.3794   -1.5874 C.3     1  UNL1        0.1811
      6 O          23.3353   72.5206    0.2390 O.3     1  UNL1       -0.3308
      7 O          21.1252   71.4521    1.9610 O.3     1  UNL1       -0.3794
      8 O          21.0725   74.1221    2.5126 O.3     1  UNL1       -0.3779
      9 C          21.0536   72.3472    0.8509 C.3     1  UNL1        0.1713
     10 C          21.5579   73.7179    1.2494 C.3     1  UNL1        0.1895
     11 C          22.0929   71.9104   -0.1725 C.3     1  UNL1        0.1764
     12 C          23.0635   73.5153    1.2390 C.3     1  UNL1        0.2383
     13 H          20.4700   71.7111    2.6283 H       1  UNL1        0.2105
     14 H          20.1100   74.2379    2.4671 H       1  UNL1        0.2106
     15 O          25.6757   74.1170    2.1285 O.2     1  UNL1       -0.2464
     16 O          25.6985   78.1554   -0.0929 O.2     1  UNL1       -0.2670
     17 N          23.7759   74.7169    0.9081 N.ar    1  UNL1       -0.2551
     18 N          25.6842   76.1282    1.0221 N.ar    1  UNL1       -0.2743
     19 C          25.0840   74.9221    1.4069 C.ar    1  UNL1        0.3323
     20 C          23.1802   75.6754    0.0973 C.ar    1  UNL1        0.0869
     21 C          23.7648   76.8202   -0.2610 C.ar    1  UNL1        0.0795
     22 C          25.1317   77.1122    0.2183 C.ar    1  UNL1        0.2626
     23 H          26.5943   76.2943    1.3588 H       1  UNL1        0.1734
     24 O          22.1877   72.0811   -4.3998 O.3     1  UNL1       -0.2703
     25 P          21.5333   72.9165   -5.6195 P.3     1  UNL1        0.2208
     26 O          22.4763   72.5332   -6.8782 O.co2   1  UNL1       -0.4371
     27 O          21.4145   74.3908   -5.3621 O.2     1  UNL1       -0.5170
     28 O          20.1328   72.1742   -5.9190 O.3     1  UNL1       -0.2858
     29 O          19.4421   69.9786   -5.3607 O.3     1  UNL1       -0.3226
     30 O          17.4000   70.6298   -8.8926 O.3     1  UNL1       -0.3794
     31 O          20.1810   71.4792   -8.6117 O.3     1  UNL1       -0.3775
     32 O          15.9937   70.7468   -6.3510 O.3     1  UNL1       -0.3792
     33 C          18.0066   70.9922   -7.6521 C.3     1  UNL1        0.1718
     34 C          19.4944   70.6420   -7.6885 C.3     1  UNL1        0.1968
     35 C          17.3039   70.2146   -6.5371 C.3     1  UNL1        0.1723
     36 C          20.1278   70.8011   -6.3056 C.3     1  UNL1        0.2706
     37 C          18.0651   70.3206   -5.2188 C.3     1  UNL1        0.1830
     38 H          17.8305   71.1118   -9.6162 H       1  UNL1        0.2105
     39 H          19.7842   71.3835   -9.4913 H       1  UNL1        0.2106
     40 H          15.4986   70.6854   -7.1829 H       1  UNL1        0.2106
     41 O          16.6469   68.4975   -4.8106 O.co2   1  UNL1       -0.5466
     42 O          17.9371   69.2207   -3.0752 O.co2   1  UNL1       -0.5466
     43 C          17.5681   69.3105   -4.2365 C.2     1  UNL1        0.0799
@<TRIPOS>UNITY_ATOM_ATTR
2 1
charge -1
26 1
charge -1
41 1
charge -1
@<TRIPOS>BOND
     1     1     4    1
     2     1    24    1
     3     1     2    1
     4     1     3    2
     5    25    28    1
     6    25    24    1
     7    25    26    1
     8    25    27    2
     9     6    11    1
    10     6    12    1
    11    29    36    1
    12    29    37    1
    13     7     9    1
    14     7    13    1
    15     8    10    1
    16     8    14    1
    17     4     5    1
    18    28    36    1
    19    30    33    1
    20    30    38    1
    21    31    34    1
    22    31    39    1
    23    32    35    1
    24    32    40    1
    25    41    43   ar
    26    15    19    2
    27    42    43   ar
    28    16    22    2
    29    17    12    1
    30    17    19   ar
    31    17    20   ar
    32    18    19   ar
    33    18    22   ar
    34    18    23    1
    35     9    10    1
    36     9    11    1
    37    10    12    1
    38    11     5    1
    39    33    34    1
    40    33    35    1
    41    34    36    1
    42    35    37    1
    43    37    43    1
    44    20    21   ar
    45    21    22   ar
@<TRIPOS>MOLECULE
*****
 43 45 0 0 0
SMALL
GASTEIGER

@<TRIPOS>ATOM
      1 P          20.6834   71.5032   -1.6750 P.3     1  UNL1        0.2189
      2 O          21.3929   70.8352   -2.9670 O.co2   1  UNL1       -0.4371
      3 O          20.4799   70.5752   -0.5135 O.2     1  UNL1       -0.5170
      4 O          19.3430   72.1819   -2.2754 O.3     1  UNL1       -0.3112
      5 C          19.0303   71.9692   -3.6397 C.3     1  UNL1        0.1811
      6 O          17.1488   71.9155   -5.1348 O.3     1  UNL1       -0.3308
      7 O          15.8195   70.1584   -3.1007 O.3     1  UNL1       -0.3794
      8 O          16.6665   68.3664   -4.9736 O.3     1  UNL1       -0.3779
      9 C          17.1933   70.2158   -3.4855 C.3     1  UNL1        0.1713
     10 C          17.3842   69.5759   -4.8442 C.3     1  UNL1        0.1895
     11 C          17.5419   71.6710   -3.7669 C.3     1  UNL1        0.1764
     12 C          16.8753   70.6606   -5.7781 C.3     1  UNL1        0.2383
     13 H          15.5734   69.2382   -2.9157 H       1  UNL1        0.2105
     14 H          17.0284   67.7084   -4.3589 H       1  UNL1        0.2106
     15 O          15.5326   70.5627   -8.2609 O.2     1  UNL1       -0.2464
     16 O          19.4969   70.5751  -10.6121 O.2     1  UNL1       -0.2670
     17 N          17.5319   70.6374   -7.0545 N.ar    1  UNL1       -0.2551
     18 N          17.5083   70.5679   -9.4295 N.ar    1  UNL1       -0.2743
     19 C          16.7646   70.5878   -8.2423 C.ar    1  UNL1        0.3323
     20 C          18.9197   70.6652   -7.1211 C.ar    1  UNL1        0.0869
     21 C          19.6144   70.6459   -8.2602 C.ar    1  UNL1        0.0795
     22 C          18.8886   70.5935   -9.5463 C.ar    1  UNL1        0.2626
     23 H          16.9960   70.5314  -10.2695 H       1  UNL1        0.1734
     24 O          21.6269   72.7777   -1.3613 O.3     1  UNL1       -0.2703
     25 P          23.0066   72.8972   -0.5272 P.3     1  UNL1        0.2208
     26 O          23.6442   71.4146   -0.6524 O.co2   1  UNL1       -0.4371
     27 O          22.8332   73.3786    0.8842 O.2     1  UNL1       -0.5170
     28 O          23.9573   73.8277   -1.4399 O.3     1  UNL1       -0.2858
     29 O          23.1508   75.8935   -2.2712 O.3     1  UNL1       -0.3226
     30 O          26.4094   75.2168   -4.7190 O.3     1  UNL1       -0.3794
     31 O          24.5982   73.0317   -4.0267 O.3     1  UNL1       -0.3775
     32 O          26.5749   77.1758   -2.5775 O.3     1  UNL1       -0.3792
     33 C          25.6524   75.1549   -3.5103 C.3     1  UNL1        0.1718
     34 C          24.3434   74.4068   -3.7640 C.3     1  UNL1        0.1968
     35 C          25.3668   76.5885   -3.0572 C.3     1  UNL1        0.1723
     36 C          23.4071   74.5186   -2.5600 C.3     1  UNL1        0.2706
     37 C          24.3299   76.6230   -1.9382 C.3     1  UNL1        0.1830
     38 H          26.6028   74.3170   -5.0261 H       1  UNL1        0.2105
     39 H          25.1919   72.9533   -4.7894 H       1  UNL1        0.2106
     40 H          27.2434   77.1600   -3.2802 H       1  UNL1        0.2106
     41 O          24.3352   78.8549   -2.6593 O.co2   1  UNL1       -0.5466
     42 O          23.0393   78.3486   -0.8528 O.co2   1  UNL1       -0.5466
     43 C          23.8182   78.0115   -1.7318 C.2     1  UNL1        0.0799
@<TRIPOS>UNITY_ATOM_ATTR
2 1
charge -1
26 1
charge -1
41 1
charge -1
@<TRIPOS>BOND
     1     1     4    1
     2     1    24    1
     3     1     2    1
     4     1     3    2
     5    25    28    1
     6    25    24    1
     7    25    26    1
     8    25    27    2
     9     6    11    1
    10     6    12    1
    11    29    36    1
    12    29    37    1
    13     7     9    1
    14     7    13    1
    15     8    10    1
    16     8    14    1
    17     4     5    1
    18    28    36    1
    19    30    33    1
    20    30    38    1
    21    31    34    1
    22    31    39    1
    23    32    35    1
    24    32    40    1
    25    41    43   ar
    26    15    19    2
    27    42    43   ar
    28    16    22    2
    29    17    12    1
    30    17    19   ar
    31    17    20   ar
    32    18    19   ar
    33    18    22   ar
    34    18    23    1
    35     9    10    1
    36     9    11    1
    37    10    12    1
    38    11     5    1
    39    33    34    1
    40    33    35    1
    41    34    36    1
    42    35    37    1
    43    37    43    1
    44    20    21   ar
    45    21    22   ar
@<TRIPOS>MOLECULE
*****
 43 45 0 0 0
SMALL
GASTEIGER

@<TRIPOS>ATOM
      1 P          21.2971   73.0773   -4.7427 P.3     1  UNL1        0.2189
      2 O          20.2819   73.9290   -3.8139 O.co2   1  UNL1       -0.4371
      3 O          22.2545   73.8998   -5.5543 O.2     1  UNL1       -0.5170
      4 O          20.3236   72.0973   -5.5852 O.3     1  UNL1       -0.3112
      5 C          20.4036   72.1166   -6.9986 C.3     1  UNL1        0.1811
      6 O          19.1492   70.1293   -6.4937 O.3     1  UNL1       -0.3308
      7 O          18.9283   69.7396   -9.4586 O.3     1  UNL1       -0.3794
      8 O          16.4941   70.7849   -8.8121 O.3     1  UNL1       -0.3779
      9 C          18.9175   70.9511   -8.7032 C.3     1  UNL1        0.1713
     10 C          17.5931   71.1103   -7.9870 C.3     1  UNL1        0.1895
     11 C          19.8899   70.7898   -7.5427 C.3     1  UNL1        0.1764
     12 C          17.7499   70.1534   -6.8176 C.3     1  UNL1        0.2383
     13 H          18.3143   69.8186  -10.2059 H       1  UNL1        0.2105
     14 H          16.4370   71.4231   -9.5412 H       1  UNL1        0.2106
     15 O          16.7009   68.3991   -4.8686 O.2     1  UNL1       -0.2464
     16 O          14.9286   71.8816   -2.4243 O.2     1  UNL1       -0.2670
     17 N          17.0103   70.5748   -5.6616 N.ar    1  UNL1       -0.2551
     18 N          15.8183   70.1352   -3.6536 N.ar    1  UNL1       -0.2743
     19 C          16.5269   69.6127   -4.7436 C.ar    1  UNL1        0.3323
     20 C          16.7720   71.9267   -5.4456 C.ar    1  UNL1        0.0869
     21 C          16.0950   72.4095   -4.4019 C.ar    1  UNL1        0.0795
     22 C          15.5553   71.4709   -3.3963 C.ar    1  UNL1        0.2626
     23 H          15.4701   69.4845   -3.0019 H       1  UNL1        0.1734
     24 O          21.9986   72.0734   -3.6877 O.3     1  UNL1       -0.2703
     25 P          23.5039   72.0343   -3.0995 P.3     1  UNL1        0.2208
     26 O          24.2409   73.2401   -3.8890 O.co2   1  UNL1       -0.4371
     27 O          24.1828   70.7019   -3.2328 O.2     1  UNL1       -0.5170
     28 O          23.3646   72.5659   -1.5828 O.3     1  UNL1       -0.2858
     29 O          21.5323   73.5952   -0.4908 O.3     1  UNL1       -0.3226
     30 O          24.7455   75.3935    1.3825 O.3     1  UNL1       -0.3794
     31 O          24.7646   74.9681   -1.5076 O.3     1  UNL1       -0.3775
     32 O          23.2320   73.3218    2.7493 O.3     1  UNL1       -0.3792
     33 C          24.0448   74.3394    0.7223 C.3     1  UNL1        0.1718
     34 C          23.6242   74.8002   -0.6735 C.3     1  UNL1        0.1968
     35 C          22.8134   73.9918    1.5617 C.3     1  UNL1        0.1723
     36 C          22.6778   73.7885   -1.3214 C.3     1  UNL1        0.2706
     37 C          21.8580   73.0794    0.7979 C.3     1  UNL1        0.1830
     38 H          25.5323   75.6315    0.8672 H       1  UNL1        0.2105
     39 H          25.3696   75.6086   -1.1024 H       1  UNL1        0.2106
     40 H          23.8407   73.8918    3.2447 H       1  UNL1        0.2106
     41 O          20.5698   72.1512    2.5243 O.co2   1  UNL1       -0.5466
     42 O          19.5392   73.6474    1.1466 O.co2   1  UNL1       -0.5466
     43 C          20.5296   73.0134    1.4785 C.2     1  UNL1        0.0799
@<TRIPOS>UNITY_ATOM_ATTR
2 1
charge -1
26 1
charge -1
41 1
charge -1
@<TRIPOS>BOND
     1     1     4    1
     2     1    24    1
     3     1     2    1
     4     1     3    2
     5    25    28    1
     6    25    24    1
     7    25    26    1
     8    25    27    2
     9     6    11    1
    10     6    12    1
    11    29    36    1
    12    29    37    1
    13     7     9    1
    14     7    13    1
    15     8    10    1
    16     8    14    1
    17     4     5    1
    18    28    36    1
    19    30    33    1
    20    30    38    1
    21    31    34    1
    22    31    39    1
    23    32    35    1
    24    32    40    1
    25    41    43   ar
    26    15    19    2
    27    42    43   ar
    28    16    22    2
    29    17    12    1
    30    17    19   ar
    31    17    20   ar
    32    18    19   ar
    33    18    22   ar
    34    18    23    1
    35     9    10    1
    36     9    11    1
    37    10    12    1
    38    11     5    1
    39    33    34    1
    40    33    35    1
    41    34    36    1
    42    35    37    1
    43    37    43    1
    44    20    21   ar
    45    21    22   ar
