@<TRIPOS>MOLECULE
UDP-glaA
 43 45 0 0 0
SMALL
GASTEIGER

@<TRIPOS>ATOM
      1 P          22.6106   72.6340   -4.1342 P.3     1  UNL1        0.2189
      2 O          23.0711   73.2283   -5.5667 O.3     1  UNL1       -0.4371
      3 O          23.5151   71.5800   -3.5658 O.2     1  UNL1       -0.5170
      4 O          21.0745   72.1877   -4.3730 O.3     1  UNL1       -0.3112
      5 C          20.4754   71.2986   -3.4458 C.3     1  UNL1        0.1811
      6 O          18.5465   72.1286   -4.6139 O.3     1  UNL1       -0.3308
      7 O          16.9157   70.8481   -2.4478 O.3     1  UNL1       -0.3794
      8 O          16.7063   69.0538   -4.4905 O.3     1  UNL1       -0.3779
      9 C          18.1296   70.3989   -3.0497 C.3     1  UNL1        0.1713
     10 C          17.8603   69.8672   -4.4416 C.3     1  UNL1        0.1895
     11 C          18.9919   71.6211   -3.3368 C.3     1  UNL1        0.1764
     12 C          17.7065   71.1477   -5.2445 C.3     1  UNL1        0.2383
     13 H          17.1428   71.2148   -1.5763 H       1  UNL1        0.2105
     14 H          16.8408   68.3174   -3.8694 H       1  UNL1        0.2106
     15 O          16.0045   70.3031   -7.3338 O.2     1  UNL1       -0.2464
     16 O          19.3895   70.5788  -10.4490 O.2     1  UNL1       -0.2670
     17 N          18.1163   70.9907   -6.6108 N.ar    1  UNL1       -0.2551
     18 N          17.6914   70.4404   -8.8835 N.ar    1  UNL1       -0.2743
     19 C          17.1837   70.5601   -7.5831 C.ar    1  UNL1        0.3323
     20 C          19.4303   71.2621   -6.9759 C.ar    1  UNL1        0.0869
     21 C          19.8989   71.1436   -8.2201 C.ar    1  UNL1        0.0795
     22 C          18.9898   70.6985   -9.2949 C.ar    1  UNL1        0.2626
     23 H          17.0388   70.1317   -9.5990 H       1  UNL1        0.1734
     24 O          22.4654   73.9608   -3.2212 O.3     1  UNL1       -0.2703
     25 P          23.5205   74.6933   -2.2399 P.3     1  UNL1        0.2208
     26 O          22.8600   76.1512   -2.0066 O.3     1  UNL1       -0.4371
     27 O          24.9278   74.7268   -2.7635 O.2     1  UNL1       -0.5170
     28 O          23.3540   73.9381   -0.8236 O.3     1  UNL1       -0.2858
     29 O          21.7369   72.2689   -0.3785 O.3     1  UNL1       -0.3226
     30 O          22.5379   73.7420    3.4252 O.3     1  UNL1       -0.3794
     31 O          22.3048   75.5553    1.1529 O.3     1  UNL1       -0.3775
     32 O          21.1208   71.6284    2.3508 O.3     1  UNL1       -0.3792
     33 C          22.7839   73.3584    2.0751 C.3     1  UNL1        0.1718
     34 C          21.9185   74.1854    1.1184 C.3     1  UNL1        0.1968
     35 C          22.4634   71.8695    1.9171 C.3     1  UNL1        0.1723
     36 C          22.0478   73.6649   -0.3185 C.3     1  UNL1        0.2706
     37 C          22.5841   71.4718    0.4476 C.3     1  UNL1        0.1830
     38 H          23.1037   73.1925    3.9940 H       1  UNL1        0.2105
     39 H          21.7376   76.0359    0.5266 H       1  UNL1        0.2106
     40 H          20.5116   71.9773    1.6783 H       1  UNL1        0.2106
     41 O          20.8869   70.0101   -0.2502 O.co2   1  UNL1       -0.5466
     42 O          22.8460   69.0715    0.4413 O.co2   1  UNL1       -0.5466
     43 C          22.1542   70.0563    0.2267 C.2     1  UNL1        0.0799
@<TRIPOS>UNITY_ATOM_ATTR
41 1
charge -1
@<TRIPOS>BOND
     1     1     4    1
     2     1    24    1
     3     1     2    1
     4     1     3    2
     5    25    28    1
     6    25    24    1
     7    25    26    1
     8    25    27    2
     9     6    11    1
    10     6    12    1
    11    29    36    1
    12    29    37    1
    13     7     9    1
    14     7    13    1
    15     8    10    1
    16     8    14    1
    17     4     5    1
    18    28    36    1
    19    30    33    1
    20    30    38    1
    21    31    34    1
    22    31    39    1
    23    32    35    1
    24    32    40    1
    25    41    43   ar
    26    15    19    2
    27    42    43   ar
    28    16    22    2
    29    17    12    1
    30    17    19   ar
    31    17    20   ar
    32    18    19   ar
    33    18    22   ar
    34    18    23    1
    35     9    10    1
    36     9    11    1
    37    10    12    1
    38    11     5    1
    39    33    34    1
    40    33    35    1
    41    34    36    1
    42    35    37    1
    43    37    43    1
    44    20    21   ar
    45    21    22   ar
@<TRIPOS>MOLECULE
UDP-glaA
 43 45 0 0 0
SMALL
GASTEIGER

@<TRIPOS>ATOM
      1 P          22.9745   71.6571   -2.8029 P.3     1  UNL1        0.2189
      2 O          23.7946   72.9679   -3.2788 O.3     1  UNL1       -0.4371
      3 O          23.5548   70.3489   -3.2545 O.2     1  UNL1       -0.5170
      4 O          21.4568   71.9537   -3.2763 O.3     1  UNL1       -0.3112
      5 C          20.5932   70.8544   -3.5107 C.3     1  UNL1        0.1811
      6 O          18.7491   71.9247   -4.6189 O.3     1  UNL1       -0.3308
      7 O          17.0134   70.7177   -2.4924 O.3     1  UNL1       -0.3794
      8 O          16.6105   69.0468   -4.6094 O.3     1  UNL1       -0.3779
      9 C          18.1718   70.1768   -3.1275 C.3     1  UNL1        0.1713
     10 C          17.8406   69.7377   -4.5382 C.3     1  UNL1        0.1895
     11 C          19.1504   71.3183   -3.3705 C.3     1  UNL1        0.1764
     12 C          17.8105   71.0620   -5.2822 C.3     1  UNL1        0.2383
     13 H          17.2823   71.0203   -1.6083 H       1  UNL1        0.2105
     14 H          16.6748   68.2735   -4.0229 H       1  UNL1        0.2106
     15 O          16.0392   70.3668   -7.3690 O.2     1  UNL1       -0.2464
     16 O          19.3900   70.5680  -10.5266 O.2     1  UNL1       -0.2670
     17 N          18.1928   70.9262   -6.6587 N.ar    1  UNL1       -0.2551
     18 N          17.7090   70.4669   -8.9399 N.ar    1  UNL1       -0.2743
     19 C          17.2262   70.5723   -7.6288 C.ar    1  UNL1        0.3323
     20 C          19.5135   71.1428   -7.0359 C.ar    1  UNL1        0.0869
     21 C          19.9581   71.0389   -8.2902 C.ar    1  UNL1        0.0795
     22 C          19.0129   70.6723   -9.3635 C.ar    1  UNL1        0.2626
     23 H          17.0318   70.2129   -9.6540 H       1  UNL1        0.1734
     24 O          22.8968   71.8413   -1.1981 O.3     1  UNL1       -0.2703
     25 P          22.4651   70.8085   -0.0321 P.3     1  UNL1        0.2208
     26 O          23.6873   69.7495   -0.0032 O.3     1  UNL1       -0.4371
     27 O          21.1116   70.1880   -0.2289 O.2     1  UNL1       -0.5170
     28 O          22.6205   71.6490    1.3367 O.3     1  UNL1       -0.2858
     29 O          21.7141   72.3948    3.3913 O.3     1  UNL1       -0.3226
     30 O          21.2817   75.7522    0.9788 O.3     1  UNL1       -0.3794
     31 O          20.7361   73.0888   -0.0770 O.3     1  UNL1       -0.3775
     32 O          20.9668   75.1534    3.6569 O.3     1  UNL1       -0.3792
     33 C          21.8651   74.5590    1.4948 C.3     1  UNL1        0.1718
     34 C          20.9123   73.3736    1.3067 C.3     1  UNL1        0.1968
     35 C          22.1661   74.7582    2.9828 C.3     1  UNL1        0.1723
     36 C          21.4553   72.1234    2.0099 C.3     1  UNL1        0.2706
     37 C          22.6595   73.4453    3.5868 C.3     1  UNL1        0.1830
     38 H          21.9169   76.4746    1.1211 H       1  UNL1        0.2105
     39 H          20.1350   72.3281   -0.1457 H       1  UNL1        0.2106
     40 H          20.3849   74.3782    3.7319 H       1  UNL1        0.2106
     41 O          23.9582   74.2707    5.3577 O.co2   1  UNL1       -0.5466
     42 O          22.0925   73.0806    5.9053 O.co2   1  UNL1       -0.5466
     43 C          22.8428   73.5587    5.0669 C.2     1  UNL1        0.0799
@<TRIPOS>UNITY_ATOM_ATTR
41 1
charge -1
@<TRIPOS>BOND
     1     1     4    1
     2     1    24    1
     3     1     2    1
     4     1     3    2
     5    25    28    1
     6    25    24    1
     7    25    26    1
     8    25    27    2
     9     6    11    1
    10     6    12    1
    11    29    36    1
    12    29    37    1
    13     7     9    1
    14     7    13    1
    15     8    10    1
    16     8    14    1
    17     4     5    1
    18    28    36    1
    19    30    33    1
    20    30    38    1
    21    31    34    1
    22    31    39    1
    23    32    35    1
    24    32    40    1
    25    41    43   ar
    26    15    19    2
    27    42    43   ar
    28    16    22    2
    29    17    12    1
    30    17    19   ar
    31    17    20   ar
    32    18    19   ar
    33    18    22   ar
    34    18    23    1
    35     9    10    1
    36     9    11    1
    37    10    12    1
    38    11     5    1
    39    33    34    1
    40    33    35    1
    41    34    36    1
    42    35    37    1
    43    37    43    1
    44    20    21   ar
    45    21    22   ar
@<TRIPOS>MOLECULE
UDP-glaA
 43 45 0 0 0
SMALL
GASTEIGER

@<TRIPOS>ATOM
      1 P          21.9782   73.7777   -5.9814 P.3     1  UNL1        0.2189
      2 O          22.3653   75.3417   -6.1279 O.3     1  UNL1       -0.4371
      3 O          22.8374   72.8361   -6.7735 O.2     1  UNL1       -0.5170
      4 O          20.3962   73.7349   -6.3147 O.3     1  UNL1       -0.3112
      5 C          19.9239   74.4395   -7.4504 C.3     1  UNL1        0.1811
      6 O          19.6227   72.1111   -7.9624 O.3     1  UNL1       -0.3308
      7 O          17.9757   73.0291  -10.2940 O.3     1  UNL1       -0.3794
      8 O          16.0791   72.3146   -8.4697 O.3     1  UNL1       -0.3779
      9 C          18.0824   73.5915   -8.9863 C.3     1  UNL1        0.1713
     10 C          17.3371   72.7356   -7.9841 C.3     1  UNL1        0.1895
     11 C          19.5259   73.4381   -8.5253 C.3     1  UNL1        0.1764
     12 C          18.3004   71.5791   -7.7783 C.3     1  UNL1        0.2383
     13 H          18.4993   73.5878  -10.8933 H       1  UNL1        0.2105
     14 H          15.5641   73.1128   -8.6790 H       1  UNL1        0.2106
     15 O          16.2011   69.8988   -6.9153 O.2     1  UNL1       -0.2464
     16 O          18.0328   69.4647   -2.7087 O.2     1  UNL1       -0.2670
     17 N          18.2038   71.0125   -6.4634 N.ar    1  UNL1       -0.2551
     18 N          17.1143   69.6842   -4.8210 N.ar    1  UNL1       -0.2743
     19 C          17.1083   70.1819   -6.1307 C.ar    1  UNL1        0.3323
     20 C          19.1879   71.2815   -5.5187 C.ar    1  UNL1        0.0869
     21 C          19.1797   70.7990   -4.2741 C.ar    1  UNL1        0.0795
     22 C          18.0702   69.9241   -3.8461 C.ar    1  UNL1        0.2626
     23 H          16.3359   69.0852   -4.5594 H       1  UNL1        0.1734
     24 O          22.0188   73.5427   -4.3819 O.3     1  UNL1       -0.2703
     25 P          23.1428   72.8659   -3.4379 P.3     1  UNL1        0.2208
     26 O          24.4822   73.6962   -3.8021 O.3     1  UNL1       -0.4371
     27 O          23.2713   71.3786   -3.6025 O.2     1  UNL1       -0.5170
     28 O          22.7616   73.3407   -1.9435 O.3     1  UNL1       -0.2858
     29 O          21.6697   71.6226   -0.7372 O.3     1  UNL1       -0.3226
     30 O          21.4058   74.8338    1.8891 O.3     1  UNL1       -0.3794
     31 O          20.9891   75.2211   -0.9713 O.3     1  UNL1       -0.3775
     32 O          20.8662   72.1260    1.9719 O.3     1  UNL1       -0.3792
     33 C          21.9574   73.9868    0.8848 C.3     1  UNL1        0.1718
     34 C          21.0402   73.9451   -0.3420 C.3     1  UNL1        0.1968
     35 C          22.1248   72.5785    1.4619 C.3     1  UNL1        0.1723
     36 C          21.5360   72.9064   -1.3559 C.3     1  UNL1        0.2706
     37 C          22.5807   71.6235    0.3608 C.3     1  UNL1        0.1830
     38 H          22.0166   74.8281    2.6457 H       1  UNL1        0.2105
     39 H          20.4062   75.1434   -1.7453 H       1  UNL1        0.2106
     40 H          20.2902   71.9046    1.2208 H       1  UNL1        0.2106
     41 O          21.5812   69.5011    0.3728 O.co2   1  UNL1       -0.5466
     42 O          23.5023   69.7507    1.5744 O.co2   1  UNL1       -0.5466
     43 C          22.6327   70.2106    0.8487 C.2     1  UNL1        0.0799
@<TRIPOS>UNITY_ATOM_ATTR
41 1
charge -1
@<TRIPOS>BOND
     1     1     4    1
     2     1    24    1
     3     1     2    1
     4     1     3    2
     5    25    28    1
     6    25    24    1
     7    25    26    1
     8    25    27    2
     9     6    11    1
    10     6    12    1
    11    29    36    1
    12    29    37    1
    13     7     9    1
    14     7    13    1
    15     8    10    1
    16     8    14    1
    17     4     5    1
    18    28    36    1
    19    30    33    1
    20    30    38    1
    21    31    34    1
    22    31    39    1
    23    32    35    1
    24    32    40    1
    25    41    43   ar
    26    15    19    2
    27    42    43   ar
    28    16    22    2
    29    17    12    1
    30    17    19   ar
    31    17    20   ar
    32    18    19   ar
    33    18    22   ar
    34    18    23    1
    35     9    10    1
    36     9    11    1
    37    10    12    1
    38    11     5    1
    39    33    34    1
    40    33    35    1
    41    34    36    1
    42    35    37    1
    43    37    43    1
    44    20    21   ar
    45    21    22   ar
@<TRIPOS>MOLECULE
UDP-glaA
 43 45 0 0 0
SMALL
GASTEIGER

@<TRIPOS>ATOM
      1 P          22.8119   71.8218   -2.2603 P.3     1  UNL1        0.2189
      2 O          23.4156   73.3225   -2.2861 O.3     1  UNL1       -0.4371
      3 O          23.4188   70.8782   -3.2571 O.2     1  UNL1       -0.5170
      4 O          21.2145   72.0421   -2.3832 O.3     1  UNL1       -0.3112
      5 C          20.5182   71.3840   -3.4279 C.3     1  UNL1        0.1811
      6 O          18.5837   72.2130   -4.5875 O.3     1  UNL1       -0.3308
      7 O          16.9628   70.9236   -2.4192 O.3     1  UNL1       -0.3794
      8 O          16.7503   69.1341   -4.4657 O.3     1  UNL1       -0.3779
      9 C          18.1756   70.4784   -3.0263 C.3     1  UNL1        0.1713
     10 C          17.9027   69.9497   -4.4186 C.3     1  UNL1        0.1895
     11 C          19.0344   71.7031   -3.3131 C.3     1  UNL1        0.1764
     12 C          17.7437   71.2320   -5.2178 C.3     1  UNL1        0.2383
     13 H          17.1920   71.2886   -1.5475 H       1  UNL1        0.2105
     14 H          16.8883   68.3964   -3.8470 H       1  UNL1        0.2106
     15 O          16.0463   70.3530   -7.2966 O.2     1  UNL1       -0.2464
     16 O          19.4101   70.6815  -10.4295 O.2     1  UNL1       -0.2670
     17 N          18.1493   71.0792   -6.5858 N.ar    1  UNL1       -0.2551
     18 N          17.7226   70.5166   -8.8552 N.ar    1  UNL1       -0.2743
     19 C          17.2194   70.6302   -7.5525 C.ar    1  UNL1        0.3323
     20 C          19.4564   71.3729   -6.9581 C.ar    1  UNL1        0.0869
     21 C          19.9207   71.2600   -8.2045 C.ar    1  UNL1        0.0795
     22 C          19.0142   70.7966   -9.2737 C.ar    1  UNL1        0.2626
     23 H          17.0719   70.1950   -9.5667 H       1  UNL1        0.1734
     24 O          23.0001   71.3821   -0.7155 O.3     1  UNL1       -0.2703
     25 P          22.0203   70.5729    0.2834 P.3     1  UNL1        0.2208
     26 O          23.0438   69.8819    1.3279 O.3     1  UNL1       -0.4371
     27 O          21.0952   69.6114   -0.4062 O.2     1  UNL1       -0.5170
     28 O          21.2735   71.7182    1.1404 O.3     1  UNL1       -0.2858
     29 O          21.7216   74.0416    1.1207 O.3     1  UNL1       -0.3226
     30 O          20.2277   73.4752    4.9582 O.3     1  UNL1       -0.3794
     31 O          22.0603   71.5360    3.7805 O.3     1  UNL1       -0.3775
     32 O          20.9071   75.6296    3.3686 O.3     1  UNL1       -0.3792
     33 C          20.3819   73.2792    3.5553 C.3     1  UNL1        0.1718
     34 C          21.8098   72.8260    3.2328 C.3     1  UNL1        0.1968
     35 C          20.0745   74.5948    2.8348 C.3     1  UNL1        0.1723
     36 C          22.0352   72.7784    1.7165 C.3     1  UNL1        0.2706
     37 C          20.3715   74.4452    1.3443 C.3     1  UNL1        0.1830
     38 H          19.3123   73.7631    5.1153 H       1  UNL1        0.2105
     39 H          22.9698   71.2881    3.5434 H       1  UNL1        0.2106
     40 H          21.8130   75.4966    3.0419 H       1  UNL1        0.2106
     41 O          19.1254   76.4152    1.0801 O.co2   1  UNL1       -0.5466
     42 O          20.9494   76.1527   -0.2620 O.co2   1  UNL1       -0.5466
     43 C          20.2090   75.7441    0.6208 C.2     1  UNL1        0.0799
@<TRIPOS>UNITY_ATOM_ATTR
41 1
charge -1
@<TRIPOS>BOND
     1     1     4    1
     2     1    24    1
     3     1     2    1
     4     1     3    2
     5    25    28    1
     6    25    24    1
     7    25    26    1
     8    25    27    2
     9     6    11    1
    10     6    12    1
    11    29    36    1
    12    29    37    1
    13     7     9    1
    14     7    13    1
    15     8    10    1
    16     8    14    1
    17     4     5    1
    18    28    36    1
    19    30    33    1
    20    30    38    1
    21    31    34    1
    22    31    39    1
    23    32    35    1
    24    32    40    1
    25    41    43   ar
    26    15    19    2
    27    42    43   ar
    28    16    22    2
    29    17    12    1
    30    17    19   ar
    31    17    20   ar
    32    18    19   ar
    33    18    22   ar
    34    18    23    1
    35     9    10    1
    36     9    11    1
    37    10    12    1
    38    11     5    1
    39    33    34    1
    40    33    35    1
    41    34    36    1
    42    35    37    1
    43    37    43    1
    44    20    21   ar
    45    21    22   ar
@<TRIPOS>MOLECULE
UDP-glaA
 43 45 0 0 0
SMALL
GASTEIGER

@<TRIPOS>ATOM
      1 P          21.5669   70.4985   -0.8940 P.3     1  UNL1        0.2189
      2 O          23.0543   70.7425   -1.4816 O.3     1  UNL1       -0.4371
      3 O          21.4933   69.5555    0.2711 O.2     1  UNL1       -0.5170
      4 O          20.6985   70.0803   -2.1927 O.3     1  UNL1       -0.3112
      5 C          20.5110   71.0391   -3.2197 C.3     1  UNL1        0.1811
      6 O          18.7500   72.1280   -4.4394 O.3     1  UNL1       -0.3308
      7 O          16.8979   71.0977   -2.3182 O.3     1  UNL1       -0.3794
      8 O          16.4927   69.3432   -4.3659 O.3     1  UNL1       -0.3779
      9 C          18.0522   70.4799   -2.8872 C.3     1  UNL1        0.1713
     10 C          17.7480   69.9863   -4.2859 C.3     1  UNL1        0.1895
     11 C          19.0853   71.5675   -3.1507 C.3     1  UNL1        0.1764
     12 C          17.7975   71.2727   -5.0925 C.3     1  UNL1        0.2383
     13 H          17.1509   71.4321   -1.4408 H       1  UNL1        0.2105
     14 H          16.5056   68.5975   -3.7415 H       1  UNL1        0.2106
     15 O          16.0792   70.4750   -7.1869 O.2     1  UNL1       -0.2464
     16 O          19.5210   70.4632  -10.2517 O.2     1  UNL1       -0.2670
     17 N          18.2176   71.0544   -6.4472 N.ar    1  UNL1       -0.2551
     18 N          17.7943   70.4691   -8.7115 N.ar    1  UNL1       -0.2743
     19 C          17.2753   70.6542   -7.4233 C.ar    1  UNL1        0.3323
     20 C          19.5508   71.2368   -6.7975 C.ar    1  UNL1        0.0869
     21 C          20.0300   71.0568   -8.0303 C.ar    1  UNL1        0.0795
     22 C          19.1120   70.6378   -9.1079 C.ar    1  UNL1        0.2626
     23 H          17.1351   70.1807   -9.4294 H       1  UNL1        0.1734
     24 O          21.0508   71.9986   -0.5799 O.3     1  UNL1       -0.2703
     25 P          21.8687   73.3593   -0.2762 P.3     1  UNL1        0.2208
     26 O          20.9452   74.5050   -0.9476 O.3     1  UNL1       -0.4371
     27 O          23.2899   73.3452   -0.7616 O.2     1  UNL1       -0.5170
     28 O          21.7094   73.5860    1.3135 O.3     1  UNL1       -0.2858
     29 O          23.6829   74.0067    2.5495 O.3     1  UNL1       -0.3226
     30 O          20.9393   73.1532    5.5534 O.3     1  UNL1       -0.3794
     31 O          20.9617   71.6030    3.0831 O.3     1  UNL1       -0.3775
     32 O          23.5318   74.0964    5.4144 O.3     1  UNL1       -0.3792
     33 C          21.4306   73.6475    4.3105 C.3     1  UNL1        0.1718
     34 C          21.9976   72.5014    3.4661 C.3     1  UNL1        0.1968
     35 C          22.5227   74.6845    4.5869 C.3     1  UNL1        0.1723
     36 C          22.6822   73.0429    2.2050 C.3     1  UNL1        0.2706
     37 C          23.1604   75.1217    3.2700 C.3     1  UNL1        0.1830
     38 H          20.5934   73.9114    6.0545 H       1  UNL1        0.2105
     39 H          21.3656   70.9020    2.5443 H       1  UNL1        0.2106
     40 H          24.0542   73.4801    4.8736 H       1  UNL1        0.2106
     41 O          25.4819   75.3413    3.5270 O.co2   1  UNL1       -0.5466
     42 O          24.2394   77.2490    3.6443 O.co2   1  UNL1       -0.5466
     43 C          24.3200   76.0376    3.5010 C.2     1  UNL1        0.0799
@<TRIPOS>UNITY_ATOM_ATTR
41 1
charge -1
@<TRIPOS>BOND
     1     1     4    1
     2     1    24    1
     3     1     2    1
     4     1     3    2
     5    25    28    1
     6    25    24    1
     7    25    26    1
     8    25    27    2
     9     6    11    1
    10     6    12    1
    11    29    36    1
    12    29    37    1
    13     7     9    1
    14     7    13    1
    15     8    10    1
    16     8    14    1
    17     4     5    1
    18    28    36    1
    19    30    33    1
    20    30    38    1
    21    31    34    1
    22    31    39    1
    23    32    35    1
    24    32    40    1
    25    41    43   ar
    26    15    19    2
    27    42    43   ar
    28    16    22    2
    29    17    12    1
    30    17    19   ar
    31    17    20   ar
    32    18    19   ar
    33    18    22   ar
    34    18    23    1
    35     9    10    1
    36     9    11    1
    37    10    12    1
    38    11     5    1
    39    33    34    1
    40    33    35    1
    41    34    36    1
    42    35    37    1
    43    37    43    1
    44    20    21   ar
    45    21    22   ar
@<TRIPOS>MOLECULE
UDP-glaA
 43 45 0 0 0
SMALL
GASTEIGER

@<TRIPOS>ATOM
      1 P          22.8829   71.8613   -3.1314 P.3     1  UNL1        0.2189
      2 O          23.9111   73.0909   -3.3509 O.3     1  UNL1       -0.4371
      3 O          23.4990   70.4962   -3.2270 O.2     1  UNL1       -0.5170
      4 O          21.6835   72.1656   -4.1728 O.3     1  UNL1       -0.3112
      5 C          21.5157   73.4919   -4.6439 C.3     1  UNL1        0.1811
      6 O          21.3963   72.4096   -6.7860 O.3     1  UNL1       -0.3308
      7 O          22.2527   75.0362   -7.9518 O.3     1  UNL1       -0.3794
      8 O          19.5640   75.0311   -8.4067 O.3     1  UNL1       -0.3779
      9 C          21.4017   74.7782   -6.8352 C.3     1  UNL1        0.1713
     10 C          20.0493   74.2879   -7.3077 C.3     1  UNL1        0.1895
     11 C          21.9448   73.5583   -6.1027 C.3     1  UNL1        0.1764
     12 C          20.3452   72.8415   -7.6658 C.3     1  UNL1        0.2383
     13 H          23.1172   75.3093   -7.6004 H       1  UNL1        0.2105
     14 H          19.5061   75.9613   -8.1283 H       1  UNL1        0.2106
     15 O          19.0900   71.3977   -9.7432 O.2     1  UNL1       -0.2464
     16 O          15.9769   69.5995   -6.8599 O.2     1  UNL1       -0.2670
     17 N          19.2055   71.9881   -7.4863 N.ar    1  UNL1       -0.2551
     18 N          17.5403   70.5036   -8.3062 N.ar    1  UNL1       -0.2743
     19 C          18.6502   71.3084   -8.5955 C.ar    1  UNL1        0.3323
     20 C          18.6493   71.8314   -6.2216 C.ar    1  UNL1        0.0869
     21 C          17.5913   71.0601   -5.9619 C.ar    1  UNL1        0.0795
     22 C          16.9513   70.3166   -7.0652 C.ar    1  UNL1        0.2626
     23 H          17.1242   70.0059   -9.0886 H       1  UNL1        0.1734
     24 O          22.2142   72.1996   -1.6984 O.3     1  UNL1       -0.2703
     25 P          20.8386   71.6861   -1.0226 P.3     1  UNL1        0.2208
     26 O          20.8691   70.0904   -1.2854 O.3     1  UNL1       -0.4371
     27 O          19.6061   72.3752   -1.5344 O.2     1  UNL1       -0.5170
     28 O          21.0795   71.8432    0.5652 O.3     1  UNL1       -0.2858
     29 O          21.6710   74.0752    1.0826 O.3     1  UNL1       -0.3226
     30 O          21.9982   72.2075    4.7818 O.3     1  UNL1       -0.3794
     31 O          22.9399   70.8784    2.3626 O.3     1  UNL1       -0.3775
     32 O          22.0827   74.7990    3.8295 O.3     1  UNL1       -0.3792
     33 C          21.4944   72.4827    3.4777 C.3     1  UNL1        0.1718
     34 C          22.5845   72.2556    2.4248 C.3     1  UNL1        0.1968
     35 C          21.0136   73.9356    3.4289 C.3     1  UNL1        0.1723
     36 C          22.1064   72.7122    1.0408 C.3     1  UNL1        0.2706
     37 C          20.6020   74.2924    2.0022 C.3     1  UNL1        0.1830
     38 H          21.2770   72.3665    5.4145 H       1  UNL1        0.2105
     39 H          23.6236   70.7825    1.6783 H       1  UNL1        0.2106
     40 H          22.7332   74.8401    3.1082 H       1  UNL1        0.2106
     41 O          20.8926   76.4713    2.8217 O.co2   1  UNL1       -0.5466
     42 O          19.4846   76.2084    1.0482 O.co2   1  UNL1       -0.5466
     43 C          20.2476   75.7403    1.8808 C.2     1  UNL1        0.0799
@<TRIPOS>UNITY_ATOM_ATTR
41 1
charge -1
@<TRIPOS>BOND
     1     1     4    1
     2     1    24    1
     3     1     2    1
     4     1     3    2
     5    25    28    1
     6    25    24    1
     7    25    26    1
     8    25    27    2
     9     6    11    1
    10     6    12    1
    11    29    36    1
    12    29    37    1
    13     7     9    1
    14     7    13    1
    15     8    10    1
    16     8    14    1
    17     4     5    1
    18    28    36    1
    19    30    33    1
    20    30    38    1
    21    31    34    1
    22    31    39    1
    23    32    35    1
    24    32    40    1
    25    41    43   ar
    26    15    19    2
    27    42    43   ar
    28    16    22    2
    29    17    12    1
    30    17    19   ar
    31    17    20   ar
    32    18    19   ar
    33    18    22   ar
    34    18    23    1
    35     9    10    1
    36     9    11    1
    37    10    12    1
    38    11     5    1
    39    33    34    1
    40    33    35    1
    41    34    36    1
    42    35    37    1
    43    37    43    1
    44    20    21   ar
    45    21    22   ar
@<TRIPOS>MOLECULE
UDP-glaA
 43 45 0 0 0
SMALL
GASTEIGER

@<TRIPOS>ATOM
      1 P          22.9313   72.0126   -2.9708 P.3     1  UNL1        0.2189
      2 O          23.5310   70.5373   -3.2557 O.3     1  UNL1       -0.4371
      3 O          22.8934   72.4122   -1.5248 O.2     1  UNL1       -0.5170
      4 O          21.5068   72.0088   -3.7365 O.3     1  UNL1       -0.3112
      5 C          20.6599   70.8821   -3.5862 C.3     1  UNL1        0.1811
      6 O          18.8098   71.9312   -4.7046 O.3     1  UNL1       -0.3308
      7 O          17.0907   70.7954   -2.5262 O.3     1  UNL1       -0.3794
      8 O          16.6555   69.0674   -4.5902 O.3     1  UNL1       -0.3779
      9 C          18.2391   70.2299   -3.1579 C.3     1  UNL1        0.1713
     10 C          17.8901   69.7528   -4.5519 C.3     1  UNL1        0.1895
     11 C          19.2213   71.3583   -3.4438 C.3     1  UNL1        0.1764
     12 C          17.8593   71.0555   -5.3330 C.3     1  UNL1        0.2383
     13 H          17.3709   71.1215   -1.6540 H       1  UNL1        0.2105
     14 H          16.7218   68.3107   -3.9826 H       1  UNL1        0.2106
     15 O          16.0283   70.5228   -7.4161 O.2     1  UNL1       -0.2464
     16 O          19.3804   70.3923  -10.5760 O.2     1  UNL1       -0.2670
     17 N          18.2258   70.8784   -6.7091 N.ar    1  UNL1       -0.2551
     18 N          17.6988   70.4577   -8.9881 N.ar    1  UNL1       -0.2743
     19 C          17.2292   70.6138   -7.6773 C.ar    1  UNL1        0.3323
     20 C          19.5608   70.9673   -7.0877 C.ar    1  UNL1        0.0869
     21 C          19.9925   70.8165   -8.3418 C.ar    1  UNL1        0.0795
     22 C          19.0159   70.5368   -9.4131 C.ar    1  UNL1        0.2626
     23 H          16.9999   70.2661   -9.7009 H       1  UNL1        0.1734
     24 O          23.8448   72.9623   -3.9082 O.3     1  UNL1       -0.2703
     25 P          23.7849   74.5540   -4.1832 P.3     1  UNL1        0.2208
     26 O          25.3440   74.9705   -4.2927 O.3     1  UNL1       -0.4371
     27 O          23.0072   75.3275   -3.1572 O.2     1  UNL1       -0.5170
     28 O          23.2197   74.6879   -5.6887 O.3     1  UNL1       -0.2858
     29 O          22.8890   76.7372   -6.8247 O.3     1  UNL1       -0.3226
     30 O          20.2233   74.2173   -8.7801 O.3     1  UNL1       -0.3794
     31 O          20.5320   74.0867   -5.8829 O.3     1  UNL1       -0.3775
     32 O          21.1834   76.7832   -9.1328 O.3     1  UNL1       -0.3792
     33 C          21.4038   74.6160   -8.0889 C.3     1  UNL1        0.1718
     34 C          21.0544   75.1363   -6.6905 C.3     1  UNL1        0.1968
     35 C          22.1038   75.7128   -8.8962 C.3     1  UNL1        0.1723
     36 C          22.2933   75.7261   -6.0051 C.3     1  UNL1        0.2706
     37 C          23.2928   76.2530   -8.1046 C.3     1  UNL1        0.1830
     38 H          20.4913   73.8982   -9.6587 H       1  UNL1        0.2105
     39 H          20.3351   74.4603   -5.0075 H       1  UNL1        0.2106
     40 H          21.0604   77.2740   -8.3027 H       1  UNL1        0.2106
     41 O          25.0565   77.0291   -9.4427 O.co2   1  UNL1       -0.5466
     42 O          23.4964   78.5586   -8.7918 O.co2   1  UNL1       -0.5466
     43 C          23.9292   77.4153   -8.7981 C.2     1  UNL1        0.0799
@<TRIPOS>UNITY_ATOM_ATTR
41 1
charge -1
@<TRIPOS>BOND
     1     1     4    1
     2     1    24    1
     3     1     2    1
     4     1     3    2
     5    25    28    1
     6    25    24    1
     7    25    26    1
     8    25    27    2
     9     6    11    1
    10     6    12    1
    11    29    36    1
    12    29    37    1
    13     7     9    1
    14     7    13    1
    15     8    10    1
    16     8    14    1
    17     4     5    1
    18    28    36    1
    19    30    33    1
    20    30    38    1
    21    31    34    1
    22    31    39    1
    23    32    35    1
    24    32    40    1
    25    41    43   ar
    26    15    19    2
    27    42    43   ar
    28    16    22    2
    29    17    12    1
    30    17    19   ar
    31    17    20   ar
    32    18    19   ar
    33    18    22   ar
    34    18    23    1
    35     9    10    1
    36     9    11    1
    37    10    12    1
    38    11     5    1
    39    33    34    1
    40    33    35    1
    41    34    36    1
    42    35    37    1
    43    37    43    1
    44    20    21   ar
    45    21    22   ar
@<TRIPOS>MOLECULE
UDP-glaA
 43 45 0 0 0
SMALL
GASTEIGER

@<TRIPOS>ATOM
      1 P          20.2096   70.3095   -3.6187 P.3     1  UNL1        0.2189
      2 O          19.7779   69.8361   -5.1043 O.3     1  UNL1       -0.4371
      3 O          20.8550   69.2468   -2.7783 O.2     1  UNL1       -0.5170
      4 O          18.8614   70.9640   -3.0110 O.3     1  UNL1       -0.3112
      5 C          17.7619   71.1793   -3.8794 C.3     1  UNL1        0.1811
      6 O          18.4714   72.9606   -5.3278 O.3     1  UNL1       -0.3308
      7 O          16.1196   74.4979   -4.2804 O.3     1  UNL1       -0.3794
      8 O          15.2248   73.6165   -6.7007 O.3     1  UNL1       -0.3779
      9 C          16.2376   73.1013   -4.5514 C.3     1  UNL1        0.1713
     10 C          16.2156   72.8525   -6.0448 C.3     1  UNL1        0.1895
     11 C          17.6488   72.6678   -4.1769 C.3     1  UNL1        0.1764
     12 C          17.6242   73.2500   -6.4520 C.3     1  UNL1        0.2383
     13 H          16.1779   74.6119   -3.3164 H       1  UNL1        0.2105
     14 H          14.3664   73.3817   -6.3080 H       1  UNL1        0.2106
     15 O          18.9302   74.4102   -8.6710 O.2     1  UNL1       -0.2464
     16 O          19.3786   70.3324  -10.7708 O.2     1  UNL1       -0.2670
     17 N          18.0933   72.5153   -7.5919 N.ar    1  UNL1       -0.2551
     18 N          19.1522   72.3789   -9.7153 N.ar    1  UNL1       -0.2743
     19 C          18.7360   73.1934   -8.6539 C.ar    1  UNL1        0.3323
     20 C          17.9147   71.1376   -7.6499 C.ar    1  UNL1        0.0869
     21 C          18.3177   70.3750   -8.6687 C.ar    1  UNL1        0.0795
     22 C          18.9966   71.0052   -9.8182 C.ar    1  UNL1        0.2626
     23 H          19.6161   72.8450  -10.4904 H       1  UNL1        0.1734
     24 O          21.1418   71.5994   -3.9061 O.3     1  UNL1       -0.2703
     25 P          22.6574   71.9339   -3.4549 P.3     1  UNL1        0.2208
     26 O          23.2152   72.8412   -4.6722 O.3     1  UNL1       -0.4371
     27 O          23.4916   70.7222   -3.1521 O.2     1  UNL1       -0.5170
     28 O          22.4993   72.9601   -2.2197 O.3     1  UNL1       -0.2858
     29 O          21.5022   71.6235   -0.5409 O.3     1  UNL1       -0.3226
     30 O          22.2981   75.1496    1.5116 O.3     1  UNL1       -0.3794
     31 O          21.2748   75.2230   -1.2185 O.3     1  UNL1       -0.3775
     32 O          21.4349   72.6059    2.1552 O.3     1  UNL1       -0.3792
     33 C          22.4787   74.0975    0.5677 C.3     1  UNL1        0.1718
     34 C          21.3011   74.0503   -0.4117 C.3     1  UNL1        0.1968
     35 C          22.5868   72.7691    1.3214 C.3     1  UNL1        0.1723
     36 C          21.3999   72.8192   -1.3211 C.3     1  UNL1        0.2706
     37 C          22.6380   71.6151    0.3226 C.3     1  UNL1        0.1830
     38 H          23.0636   75.1404    2.1111 H       1  UNL1        0.2105
     39 H          20.5209   75.1437   -1.8270 H       1  UNL1        0.2106
     40 H          20.6736   72.3880    1.5912 H       1  UNL1        0.2106
     41 O          21.6346   69.5026    0.5081 O.co2   1  UNL1       -0.5466
     42 O          23.3706   69.9545    1.9149 O.co2   1  UNL1       -0.5466
     43 C          22.6134   70.2900    1.0157 C.2     1  UNL1        0.0799
@<TRIPOS>UNITY_ATOM_ATTR
41 1
charge -1
@<TRIPOS>BOND
     1     1     4    1
     2     1    24    1
     3     1     2    1
     4     1     3    2
     5    25    28    1
     6    25    24    1
     7    25    26    1
     8    25    27    2
     9     6    11    1
    10     6    12    1
    11    29    36    1
    12    29    37    1
    13     7     9    1
    14     7    13    1
    15     8    10    1
    16     8    14    1
    17     4     5    1
    18    28    36    1
    19    30    33    1
    20    30    38    1
    21    31    34    1
    22    31    39    1
    23    32    35    1
    24    32    40    1
    25    41    43   ar
    26    15    19    2
    27    42    43   ar
    28    16    22    2
    29    17    12    1
    30    17    19   ar
    31    17    20   ar
    32    18    19   ar
    33    18    22   ar
    34    18    23    1
    35     9    10    1
    36     9    11    1
    37    10    12    1
    38    11     5    1
    39    33    34    1
    40    33    35    1
    41    34    36    1
    42    35    37    1
    43    37    43    1
    44    20    21   ar
    45    21    22   ar
@<TRIPOS>MOLECULE
UDP-glaA
 43 45 0 0 0
SMALL
GASTEIGER

@<TRIPOS>ATOM
      1 P          21.7599   73.3838   -3.1440 P.3     1  UNL1        0.2189
      2 O          22.1602   72.6827   -1.7420 O.3     1  UNL1       -0.4371
      3 O          20.7204   74.4611   -3.0389 O.2     1  UNL1       -0.5170
      4 O          21.3886   72.1405   -4.1094 O.3     1  UNL1       -0.3112
      5 C          20.6565   71.0555   -3.5654 C.3     1  UNL1        0.1811
      6 O          18.7558   72.0122   -4.6817 O.3     1  UNL1       -0.3308
      7 O          17.0988   70.8069   -2.4924 O.3     1  UNL1       -0.3794
      8 O          16.7379   69.0515   -4.5477 O.3     1  UNL1       -0.3779
      9 C          18.2702   70.2929   -3.1259 C.3     1  UNL1        0.1713
     10 C          17.9392   69.7940   -4.5166 C.3     1  UNL1        0.1895
     11 C          19.1977   71.4646   -3.4200 C.3     1  UNL1        0.1764
     12 C          17.8450   71.0903   -5.3030 C.3     1  UNL1        0.2383
     13 H          17.3663   71.1496   -1.6226 H       1  UNL1        0.2105
     14 H          16.8415   68.3014   -3.9371 H       1  UNL1        0.2106
     15 O          16.0439   70.4064   -7.3678 O.2     1  UNL1       -0.2464
     16 O          19.3776   70.4789  -10.5490 O.2     1  UNL1       -0.2670
     17 N          18.2149   70.9245   -6.6796 N.ar    1  UNL1       -0.2551
     18 N          17.7052   70.4424   -8.9505 N.ar    1  UNL1       -0.2743
     19 C          17.2337   70.5793   -7.6382 C.ar    1  UNL1        0.3323
     20 C          19.5379   71.1035   -7.0683 C.ar    1  UNL1        0.0869
     21 C          19.9716   70.9699   -8.3236 C.ar    1  UNL1        0.0795
     22 C          19.0108   70.6099   -9.3852 C.ar    1  UNL1        0.2626
     23 H          17.0174   70.1940   -9.6564 H       1  UNL1        0.1734
     24 O          23.1868   73.8788   -3.7220 O.3     1  UNL1       -0.2703
     25 P          23.6533   75.3098   -4.3113 P.3     1  UNL1        0.2208
     26 O          25.2659   75.1896   -4.3445 O.3     1  UNL1       -0.4371
     27 O          23.1354   76.4912   -3.5419 O.2     1  UNL1       -0.5170
     28 O          23.2093   75.2777   -5.8623 O.3     1  UNL1       -0.2858
     29 O          24.3644   75.8645   -7.8424 O.3     1  UNL1       -0.3226
     30 O          20.4692   77.0093   -8.7347 O.3     1  UNL1       -0.3794
     31 O          21.5885   77.5015   -6.0869 O.3     1  UNL1       -0.3775
     32 O          22.8579   76.7887  -10.1041 O.3     1  UNL1       -0.3792
     33 C          21.5259   76.2421   -8.1645 C.3     1  UNL1        0.1718
     34 C          22.3620   77.1068   -7.2150 C.3     1  UNL1        0.1968
     35 C          22.4079   75.6991   -9.2922 C.3     1  UNL1        0.1723
     36 C          23.5993   76.3410   -6.7304 C.3     1  UNL1        0.2706
     37 C          23.6250   74.9940   -8.6975 C.3     1  UNL1        0.1830
     38 H          19.9692   76.4239   -9.3288 H       1  UNL1        0.2105
     39 H          22.1605   78.0371   -5.5118 H       1  UNL1        0.2106
     40 H          23.5395   77.2785   -9.6135 H       1  UNL1        0.2106
     41 O          25.6796   75.3531   -9.7715 O.co2   1  UNL1       -0.5466
     42 O          24.4043   73.6193  -10.5231 O.co2   1  UNL1       -0.5466
     43 C          24.5809   74.5603   -9.7629 C.2     1  UNL1        0.0799
@<TRIPOS>UNITY_ATOM_ATTR
41 1
charge -1
@<TRIPOS>BOND
     1     1     4    1
     2     1    24    1
     3     1     2    1
     4     1     3    2
     5    25    28    1
     6    25    24    1
     7    25    26    1
     8    25    27    2
     9     6    11    1
    10     6    12    1
    11    29    36    1
    12    29    37    1
    13     7     9    1
    14     7    13    1
    15     8    10    1
    16     8    14    1
    17     4     5    1
    18    28    36    1
    19    30    33    1
    20    30    38    1
    21    31    34    1
    22    31    39    1
    23    32    35    1
    24    32    40    1
    25    41    43   ar
    26    15    19    2
    27    42    43   ar
    28    16    22    2
    29    17    12    1
    30    17    19   ar
    31    17    20   ar
    32    18    19   ar
    33    18    22   ar
    34    18    23    1
    35     9    10    1
    36     9    11    1
    37    10    12    1
    38    11     5    1
    39    33    34    1
    40    33    35    1
    41    34    36    1
    42    35    37    1
    43    37    43    1
    44    20    21   ar
    45    21    22   ar
@<TRIPOS>MOLECULE
UDP-glaA
 43 45 0 0 0
SMALL
GASTEIGER

@<TRIPOS>ATOM
      1 P          22.6296   71.2474   -1.8950 P.3     1  UNL1        0.2189
      2 O          23.1602   70.7303   -3.3332 O.3     1  UNL1       -0.4371
      3 O          22.7178   70.2384   -0.7877 O.2     1  UNL1       -0.5170
      4 O          21.1498   71.8197   -2.2084 O.3     1  UNL1       -0.3112
      5 C          20.5145   71.4310   -3.4144 C.3     1  UNL1        0.1811
      6 O          18.6019   72.2460   -4.6193 O.3     1  UNL1       -0.3308
      7 O          16.9434   71.0358   -2.4339 O.3     1  UNL1       -0.3794
      8 O          16.7351   69.1907   -4.4308 O.3     1  UNL1       -0.3779
      9 C          18.1582   70.5611   -3.0141 C.3     1  UNL1        0.1713
     10 C          17.8954   69.9956   -4.3938 C.3     1  UNL1        0.1895
     11 C          19.0330   71.7683   -3.3258 C.3     1  UNL1        0.1764
     12 C          17.7587   71.2559   -5.2309 C.3     1  UNL1        0.2383
     13 H          17.1667   71.4232   -1.5704 H       1  UNL1        0.2105
     14 H          16.8585   68.4696   -3.7898 H       1  UNL1        0.2106
     15 O          16.0691   70.3592   -7.3086 O.2     1  UNL1       -0.2464
     16 O          19.4776   70.5384  -10.4052 O.2     1  UNL1       -0.2670
     17 N          18.1779   71.0600   -6.5893 N.ar    1  UNL1       -0.2551
     18 N          17.7677   70.4485   -8.8491 N.ar    1  UNL1       -0.2743
     19 C          17.2509   70.6057   -7.5563 C.ar    1  UNL1        0.3323
     20 C          19.4954   71.3171   -6.9521 C.ar    1  UNL1        0.0869
     21 C          19.9726   71.1629   -8.1891 C.ar    1  UNL1        0.0795
     22 C          19.0699   70.6911   -9.2578 C.ar    1  UNL1        0.2626
     23 H          17.1193   70.1222   -9.5606 H       1  UNL1        0.1734
     24 O          23.4948   72.5918   -1.6516 O.3     1  UNL1       -0.2703
     25 P          23.0324   74.1046   -1.3197 P.3     1  UNL1        0.2208
     26 O          22.7380   74.0623    0.2702 O.3     1  UNL1       -0.4371
     27 O          21.8806   74.5930   -2.1507 O.2     1  UNL1       -0.5170
     28 O          24.3777   74.9841   -1.4627 O.3     1  UNL1       -0.2858
     29 O          25.1891   77.0950   -2.1591 O.3     1  UNL1       -0.3226
     30 O          27.4236   74.4871   -4.5011 O.3     1  UNL1       -0.3794
     31 O          24.5869   73.9976   -4.0328 O.3     1  UNL1       -0.3775
     32 O          27.4187   77.1966   -3.9639 O.3     1  UNL1       -0.3792
     33 C          26.7129   74.9660   -3.3628 C.3     1  UNL1        0.1718
     34 C          25.2441   75.2206   -3.7180 C.3     1  UNL1        0.1968
     35 C          27.3675   76.2632   -2.8799 C.3     1  UNL1        0.1723
     36 C          24.5124   75.8963   -2.5516 C.3     1  UNL1        0.2706
     37 C          26.5369   76.8675   -1.7499 C.3     1  UNL1        0.1830
     38 H          28.3466   74.3424   -4.2312 H       1  UNL1        0.2105
     39 H          23.6609   74.2073   -4.2410 H       1  UNL1        0.2106
     40 H          26.5222   77.5389   -4.1194 H       1  UNL1        0.2106
     41 O          26.0986   78.9382   -0.7380 O.co2   1  UNL1       -0.5466
     42 O          28.2169   78.5839   -1.5025 O.co2   1  UNL1       -0.5466
     43 C          27.0677   78.2026   -1.3342 C.2     1  UNL1        0.0799
@<TRIPOS>UNITY_ATOM_ATTR
41 1
charge -1
@<TRIPOS>BOND
     1     1     4    1
     2     1    24    1
     3     1     2    1
     4     1     3    2
     5    25    28    1
     6    25    24    1
     7    25    26    1
     8    25    27    2
     9     6    11    1
    10     6    12    1
    11    29    36    1
    12    29    37    1
    13     7     9    1
    14     7    13    1
    15     8    10    1
    16     8    14    1
    17     4     5    1
    18    28    36    1
    19    30    33    1
    20    30    38    1
    21    31    34    1
    22    31    39    1
    23    32    35    1
    24    32    40    1
    25    41    43   ar
    26    15    19    2
    27    42    43   ar
    28    16    22    2
    29    17    12    1
    30    17    19   ar
    31    17    20   ar
    32    18    19   ar
    33    18    22   ar
    34    18    23    1
    35     9    10    1
    36     9    11    1
    37    10    12    1
    38    11     5    1
    39    33    34    1
    40    33    35    1
    41    34    36    1
    42    35    37    1
    43    37    43    1
    44    20    21   ar
    45    21    22   ar
@<TRIPOS>MOLECULE
UDP-glaA
 43 45 0 0 0
SMALL
GASTEIGER

@<TRIPOS>ATOM
      1 P          22.9746   72.0608   -3.3601 P.3     1  UNL1        0.2189
      2 O          23.8869   73.0251   -4.2849 O.3     1  UNL1       -0.4371
      3 O          23.5064   70.6692   -3.1793 O.2     1  UNL1       -0.5170
      4 O          21.5012   72.1703   -4.0177 O.3     1  UNL1       -0.3112
      5 C          20.7931   70.9743   -4.2964 C.3     1  UNL1        0.1811
      6 O          18.6263   71.9658   -3.9861 O.3     1  UNL1       -0.3308
      7 O          17.9327   69.5070   -2.4162 O.3     1  UNL1       -0.3794
      8 O          16.7640   69.0208   -4.8315 O.3     1  UNL1       -0.3779
      9 C          18.7536   69.6358   -3.5769 C.3     1  UNL1        0.1713
     10 C          17.8963   69.8650   -4.8037 C.3     1  UNL1        0.1895
     11 C          19.5151   70.9504   -3.4701 C.3     1  UNL1        0.1764
     12 C          17.5276   71.3320   -4.6617 C.3     1  UNL1        0.2383
     13 H          18.5252   69.4012   -1.6524 H       1  UNL1        0.2105
     14 H          17.0832   68.1022   -4.8112 H       1  UNL1        0.2106
     15 O          15.9984   70.2461   -6.7731 O.2     1  UNL1       -0.2464
     16 O          16.8300   73.8774   -9.4863 O.2     1  UNL1       -0.2670
     17 N          17.3273   71.9722   -5.9302 N.ar    1  UNL1       -0.2551
     18 N          16.4140   72.0548   -8.1229 N.ar    1  UNL1       -0.2743
     19 C          16.5424   71.3416   -6.9238 C.ar    1  UNL1        0.3323
     20 C          17.9058   73.2117   -6.1801 C.ar    1  UNL1        0.0869
     21 C          17.7736   73.8791   -7.3285 C.ar    1  UNL1        0.0795
     22 C          16.9705   73.2897   -8.4182 C.ar    1  UNL1        0.2626
     23 H          15.8545   71.6203   -8.8518 H       1  UNL1        0.1734
     24 O          22.8250   72.9078   -1.9907 O.3     1  UNL1       -0.2703
     25 P          22.0461   74.2892   -1.6782 P.3     1  UNL1        0.2208
     26 O          20.5189   73.9564   -2.0942 O.3     1  UNL1       -0.4371
     27 O          22.6272   75.4927   -2.3637 O.2     1  UNL1       -0.5170
     28 O          22.0185   74.3878   -0.0678 O.3     1  UNL1       -0.2858
     29 O          21.1593   72.3069    0.6610 O.3     1  UNL1       -0.3226
     30 O          22.0385   74.1945    4.2587 O.3     1  UNL1       -0.3794
     31 O          20.8300   75.6831    2.0611 O.3     1  UNL1       -0.3775
     32 O          21.2611   71.6679    3.4574 O.3     1  UNL1       -0.3792
     33 C          22.1705   73.8319    2.8871 C.3     1  UNL1        0.1718
     34 C          20.9296   74.2634    2.0983 C.3     1  UNL1        0.1968
     35 C          22.3507   72.3144    2.7912 C.3     1  UNL1        0.1723
     36 C          20.9853   73.7277    0.6623 C.3     1  UNL1        0.2706
     37 C          22.3515   71.8893    1.3244 C.3     1  UNL1        0.1830
     38 H          22.8432   73.9006    4.7187 H       1  UNL1        0.2105
     39 H          20.0376   75.9082    1.5451 H       1  UNL1        0.2106
     40 H          20.4666   71.7523    2.9036 H       1  UNL1        0.2106
     41 O          23.4541   69.8885    1.8581 O.co2   1  UNL1       -0.5466
     42 O          21.5883   69.7307    0.5578 O.co2   1  UNL1       -0.5466
     43 C          22.3950   70.4007    1.1861 C.2     1  UNL1        0.0799
@<TRIPOS>UNITY_ATOM_ATTR
41 1
charge -1
@<TRIPOS>BOND
     1     1     4    1
     2     1    24    1
     3     1     2    1
     4     1     3    2
     5    25    28    1
     6    25    24    1
     7    25    26    1
     8    25    27    2
     9     6    11    1
    10     6    12    1
    11    29    36    1
    12    29    37    1
    13     7     9    1
    14     7    13    1
    15     8    10    1
    16     8    14    1
    17     4     5    1
    18    28    36    1
    19    30    33    1
    20    30    38    1
    21    31    34    1
    22    31    39    1
    23    32    35    1
    24    32    40    1
    25    41    43   ar
    26    15    19    2
    27    42    43   ar
    28    16    22    2
    29    17    12    1
    30    17    19   ar
    31    17    20   ar
    32    18    19   ar
    33    18    22   ar
    34    18    23    1
    35     9    10    1
    36     9    11    1
    37    10    12    1
    38    11     5    1
    39    33    34    1
    40    33    35    1
    41    34    36    1
    42    35    37    1
    43    37    43    1
    44    20    21   ar
    45    21    22   ar
@<TRIPOS>MOLECULE
UDP-glaA
 43 45 0 0 0
SMALL
GASTEIGER

@<TRIPOS>ATOM
      1 P          23.4118   73.7474   -3.7963 P.3     1  UNL1        0.2189
      2 O          23.5277   72.1428   -3.6257 O.3     1  UNL1       -0.4371
      3 O          24.6678   74.4272   -4.2573 O.2     1  UNL1       -0.5170
      4 O          22.8218   74.2487   -2.3764 O.3     1  UNL1       -0.3112
      5 C          23.1822   75.5380   -1.9103 C.3     1  UNL1        0.1811
      6 O          21.5019   74.7471   -0.3854 O.3     1  UNL1       -0.3308
      7 O          22.2420   77.0802    1.3467 O.3     1  UNL1       -0.3794
      8 O          23.5389   75.0073    2.5538 O.3     1  UNL1       -0.3779
      9 C          23.0770   76.2646    0.5249 C.3     1  UNL1        0.1713
     10 C          23.2840   74.9095    1.1678 C.3     1  UNL1        0.1895
     11 C          22.2932   75.9054   -0.7306 C.3     1  UNL1        0.1764
     12 C          21.9693   74.2116    0.8637 C.3     1  UNL1        0.2383
     13 H          22.1058   77.9209    0.8775 H       1  UNL1        0.2105
     14 H          24.3325   75.5581    2.6673 H       1  UNL1        0.2106
     15 O          22.6077   72.4757    2.9978 O.2     1  UNL1       -0.2464
     16 O          22.5245   68.7745    0.2531 O.2     1  UNL1       -0.2670
     17 N          22.1200   72.7903    0.7353 N.ar    1  UNL1       -0.2551
     18 N          22.5664   70.6339    1.6295 N.ar    1  UNL1       -0.2743
     19 C          22.4427   72.0088    1.8693 C.ar    1  UNL1        0.3323
     20 C          21.9486   72.1841   -0.5043 C.ar    1  UNL1        0.0869
     21 C          22.0694   70.8718   -0.7165 C.ar    1  UNL1        0.0795
     22 C          22.4057   69.9852    0.4150 C.ar    1  UNL1        0.2626
     23 H          22.7986   70.0525    2.4303 H       1  UNL1        0.1734
     24 O          22.1500   73.9156   -4.7936 O.3     1  UNL1       -0.2703
     25 P          20.7267   73.1509   -4.8410 P.3     1  UNL1        0.2208
     26 O          19.6794   74.2862   -4.3610 O.3     1  UNL1       -0.4371
     27 O          20.6808   71.8844   -4.0350 O.2     1  UNL1       -0.5170
     28 O          20.4215   72.9521   -6.4130 O.3     1  UNL1       -0.2858
     29 O          19.0331   71.0360   -6.4066 O.3     1  UNL1       -0.3226
     30 O          18.7825   72.2799  -10.3650 O.3     1  UNL1       -0.3794
     31 O          21.3312   72.3486   -8.9489 O.3     1  UNL1       -0.3775
     32 O          17.5301   70.4052   -8.7692 O.3     1  UNL1       -0.3792
     33 C          18.9011   72.3858   -8.9491 C.3     1  UNL1        0.1718
     34 C          20.1717   71.6791   -8.4649 C.3     1  UNL1        0.1968
     35 C          17.6685   71.7504   -8.2999 C.3     1  UNL1        0.1723
     36 C          20.2203   71.6384   -6.9325 C.3     1  UNL1        0.2706
     37 C          17.8424   71.7261   -6.7829 C.3     1  UNL1        0.1830
     38 H          17.9653   72.7378  -10.6260 H       1  UNL1        0.2105
     39 H          22.1079   71.8724   -8.6101 H       1  UNL1        0.2106
     40 H          18.2125   69.8582   -8.3447 H       1  UNL1        0.2106
     41 O          16.0982   71.7970   -5.2156 O.co2   1  UNL1       -0.5466
     42 O          16.3997   69.8401   -6.3456 O.co2   1  UNL1       -0.5466
     43 C          16.7202   70.9971   -6.1151 C.2     1  UNL1        0.0799
@<TRIPOS>UNITY_ATOM_ATTR
41 1
charge -1
@<TRIPOS>BOND
     1     1     4    1
     2     1    24    1
     3     1     2    1
     4     1     3    2
     5    25    28    1
     6    25    24    1
     7    25    26    1
     8    25    27    2
     9     6    11    1
    10     6    12    1
    11    29    36    1
    12    29    37    1
    13     7     9    1
    14     7    13    1
    15     8    10    1
    16     8    14    1
    17     4     5    1
    18    28    36    1
    19    30    33    1
    20    30    38    1
    21    31    34    1
    22    31    39    1
    23    32    35    1
    24    32    40    1
    25    41    43   ar
    26    15    19    2
    27    42    43   ar
    28    16    22    2
    29    17    12    1
    30    17    19   ar
    31    17    20   ar
    32    18    19   ar
    33    18    22   ar
    34    18    23    1
    35     9    10    1
    36     9    11    1
    37    10    12    1
    38    11     5    1
    39    33    34    1
    40    33    35    1
    41    34    36    1
    42    35    37    1
    43    37    43    1
    44    20    21   ar
    45    21    22   ar
@<TRIPOS>MOLECULE
UDP-glaA
 43 45 0 0 0
SMALL
GASTEIGER

@<TRIPOS>ATOM
      1 P          21.6673   73.6297   -6.2078 P.3     1  UNL1        0.2189
      2 O          20.8499   74.6080   -5.2118 O.3     1  UNL1       -0.4371
      3 O          22.7087   74.3089   -7.0484 O.2     1  UNL1       -0.5170
      4 O          20.5098   72.8455   -7.0206 O.3     1  UNL1       -0.3112
      5 C          19.4048   73.5864   -7.5098 C.3     1  UNL1        0.1811
      6 O          18.5431   71.3556   -7.2748 O.3     1  UNL1       -0.3308
      7 O          15.9670   72.4367   -8.3640 O.3     1  UNL1       -0.3794
      8 O          15.4796   72.3241   -5.6834 O.3     1  UNL1       -0.3779
      9 C          16.9159   73.0626   -7.5006 C.3     1  UNL1        0.1713
     10 C          16.8184   72.4833   -6.1051 C.3     1  UNL1        0.1895
     11 C          18.3077   72.6200   -7.9329 C.3     1  UNL1        0.1764
     12 C          17.5427   71.1572   -6.2624 C.3     1  UNL1        0.2383
     13 H          16.0929   72.8107   -9.2527 H       1  UNL1        0.2105
     14 H          15.0569   73.1997   -5.7144 H       1  UNL1        0.2106
     15 O          16.2358   70.9090   -3.7712 O.2     1  UNL1       -0.2464
     16 O          20.1011   69.5302   -1.6744 O.2     1  UNL1       -0.2670
     17 N          18.1829   70.7350   -5.0495 N.ar    1  UNL1       -0.2551
     18 N          18.1615   70.2231   -2.7286 N.ar    1  UNL1       -0.2743
     19 C          17.4367   70.6443   -3.8512 C.ar    1  UNL1        0.3323
     20 C          19.5362   70.4159   -5.0548 C.ar    1  UNL1        0.0869
     21 C          20.2129   70.0153   -3.9761 C.ar    1  UNL1        0.0795
     22 C          19.5077   69.8952   -2.6847 C.ar    1  UNL1        0.2626
     23 H          17.6455   70.1512   -1.8559 H       1  UNL1        0.1734
     24 O          22.2426   72.4948   -5.2097 O.3     1  UNL1       -0.2703
     25 P          23.0606   72.6199   -3.8212 P.3     1  UNL1        0.2208
     26 O          24.2743   73.6218   -4.1945 O.3     1  UNL1       -0.4371
     27 O          23.4980   71.3044   -3.2433 O.2     1  UNL1       -0.5170
     28 O          22.0989   73.4850   -2.8565 O.3     1  UNL1       -0.2858
     29 O          22.0769   72.9190   -0.5590 O.3     1  UNL1       -0.3226
     30 O          18.7270   75.3581   -0.8872 O.3     1  UNL1       -0.3794
     31 O          19.3412   73.3981   -2.9577 O.3     1  UNL1       -0.3775
     32 O          20.1590   74.1834    1.1619 O.3     1  UNL1       -0.3792
     33 C          20.0383   74.8674   -1.1516 C.3     1  UNL1        0.1718
     34 C          19.9744   73.4315   -1.6831 C.3     1  UNL1        0.1968
     35 C          20.8538   74.9108    0.1435 C.3     1  UNL1        0.1723
     36 C          21.3821   72.8353   -1.8076 C.3     1  UNL1        0.2706
     37 C          22.2151   74.2576   -0.0850 C.3     1  UNL1        0.1830
     38 H          18.8158   76.2664   -0.5514 H       1  UNL1        0.2105
     39 H          19.3326   72.4733   -3.2569 H       1  UNL1        0.2106
     40 H          20.2415   73.2332    0.9736 H       1  UNL1        0.2106
     41 O          23.9309   75.1400    1.2496 O.co2   1  UNL1       -0.5466
     42 O          22.8198   73.3203    2.0564 O.co2   1  UNL1       -0.5466
     43 C          22.9962   74.1612    1.1868 C.2     1  UNL1        0.0799
@<TRIPOS>UNITY_ATOM_ATTR
41 1
charge -1
@<TRIPOS>BOND
     1     1     4    1
     2     1    24    1
     3     1     2    1
     4     1     3    2
     5    25    28    1
     6    25    24    1
     7    25    26    1
     8    25    27    2
     9     6    11    1
    10     6    12    1
    11    29    36    1
    12    29    37    1
    13     7     9    1
    14     7    13    1
    15     8    10    1
    16     8    14    1
    17     4     5    1
    18    28    36    1
    19    30    33    1
    20    30    38    1
    21    31    34    1
    22    31    39    1
    23    32    35    1
    24    32    40    1
    25    41    43   ar
    26    15    19    2
    27    42    43   ar
    28    16    22    2
    29    17    12    1
    30    17    19   ar
    31    17    20   ar
    32    18    19   ar
    33    18    22   ar
    34    18    23    1
    35     9    10    1
    36     9    11    1
    37    10    12    1
    38    11     5    1
    39    33    34    1
    40    33    35    1
    41    34    36    1
    42    35    37    1
    43    37    43    1
    44    20    21   ar
    45    21    22   ar
@<TRIPOS>MOLECULE
UDP-glaA
 43 45 0 0 0
SMALL
GASTEIGER

@<TRIPOS>ATOM
      1 P          15.0379   73.7038   -4.2667 P.3     1  UNL1        0.2189
      2 O          14.1779   72.5790   -3.4839 O.3     1  UNL1       -0.4371
      3 O          14.5297   75.1078   -4.1158 O.2     1  UNL1       -0.5170
      4 O          15.1214   73.1456   -5.7823 O.3     1  UNL1       -0.3112
      5 C          16.3967   73.0180   -6.3878 C.3     1  UNL1        0.1811
      6 O          17.7275   71.4868   -7.6758 O.3     1  UNL1       -0.3308
      7 O          16.7646   69.3597   -5.7945 O.3     1  UNL1       -0.3794
      8 O          19.2679   69.8962   -4.8557 O.3     1  UNL1       -0.3779
      9 C          17.0832   70.7252   -5.5270 C.3     1  UNL1        0.1713
     10 C          18.5839   70.9263   -5.5387 C.3     1  UNL1        0.1895
     11 C          16.6412   71.5542   -6.7258 C.3     1  UNL1        0.1764
     12 C          18.8886   70.9427   -7.0270 C.3     1  UNL1        0.2383
     13 H          15.7951   69.2871   -5.8157 H       1  UNL1        0.2105
     14 H          18.9377   69.8821   -3.9409 H       1  UNL1        0.2106
     15 O          19.9915   71.2045   -9.6136 O.2     1  UNL1       -0.2464
     16 O          23.2568   74.0972   -8.1274 O.2     1  UNL1       -0.2670
     17 N          20.0262   71.7578   -7.3447 N.ar    1  UNL1       -0.2551
     18 N          21.6171   72.6444   -8.8717 N.ar    1  UNL1       -0.2743
     19 C          20.5017   71.8195   -8.6754 C.ar    1  UNL1        0.3323
     20 C          20.6591   72.4854   -6.3429 C.ar    1  UNL1        0.0869
     21 C          21.7213   73.2678   -6.5462 C.ar    1  UNL1        0.0795
     22 C          22.2807   73.3868   -7.9073 C.ar    1  UNL1        0.2626
     23 H          21.9766   72.7035   -9.8206 H       1  UNL1        0.1734
     24 O          16.5372   73.4666   -3.7092 O.3     1  UNL1       -0.2703
     25 P          17.0692   73.0558   -2.2392 P.3     1  UNL1        0.2208
     26 O          16.7983   71.4624   -2.1784 O.3     1  UNL1       -0.4371
     27 O          16.4431   73.8344   -1.1178 O.2     1  UNL1       -0.5170
     28 O          18.6743   73.1940   -2.3318 O.3     1  UNL1       -0.2858
     29 O          20.3999   71.6736   -1.7748 O.3     1  UNL1       -0.3226
     30 O          22.1193   75.3336   -0.8117 O.3     1  UNL1       -0.3794
     31 O          19.3226   74.7986   -0.1807 O.3     1  UNL1       -0.3775
     32 O          22.9600   72.7086   -0.9919 O.3     1  UNL1       -0.3792
     33 C          21.3120   74.3948   -1.5170 C.3     1  UNL1        0.1718
     34 C          20.2503   73.7980   -0.5870 C.3     1  UNL1        0.1968
     35 C          22.2106   73.2839   -2.0672 C.3     1  UNL1        0.1723
     36 C          19.4898   72.6650   -1.2872 C.3     1  UNL1        0.2706
     37 C          21.3493   72.1951   -2.7035 C.3     1  UNL1        0.1830
     38 H          22.7770   75.6830   -1.4370 H       1  UNL1        0.2105
     39 H          18.6665   74.3733    0.3969 H       1  UNL1        0.2106
     40 H          22.3623   72.1574   -0.4590 H       1  UNL1        0.2106
     41 O          23.3859   71.4403   -3.5902 O.co2   1  UNL1       -0.5466
     42 O          21.8196   69.8595   -3.0954 O.co2   1  UNL1       -0.5466
     43 C          22.1766   71.0279   -3.1395 C.2     1  UNL1        0.0799
@<TRIPOS>UNITY_ATOM_ATTR
41 1
charge -1
@<TRIPOS>BOND
     1     1     4    1
     2     1    24    1
     3     1     2    1
     4     1     3    2
     5    25    28    1
     6    25    24    1
     7    25    26    1
     8    25    27    2
     9     6    11    1
    10     6    12    1
    11    29    36    1
    12    29    37    1
    13     7     9    1
    14     7    13    1
    15     8    10    1
    16     8    14    1
    17     4     5    1
    18    28    36    1
    19    30    33    1
    20    30    38    1
    21    31    34    1
    22    31    39    1
    23    32    35    1
    24    32    40    1
    25    41    43   ar
    26    15    19    2
    27    42    43   ar
    28    16    22    2
    29    17    12    1
    30    17    19   ar
    31    17    20   ar
    32    18    19   ar
    33    18    22   ar
    34    18    23    1
    35     9    10    1
    36     9    11    1
    37    10    12    1
    38    11     5    1
    39    33    34    1
    40    33    35    1
    41    34    36    1
    42    35    37    1
    43    37    43    1
    44    20    21   ar
    45    21    22   ar
@<TRIPOS>MOLECULE
UDP-glaA
 43 45 0 0 0
SMALL
GASTEIGER

@<TRIPOS>ATOM
      1 P          20.4591   75.3415   -2.9987 P.3     1  UNL1        0.2189
      2 O          19.1916   76.0859   -2.3229 O.3     1  UNL1       -0.4371
      3 O          21.4442   76.2529   -3.6703 O.2     1  UNL1       -0.5170
      4 O          19.7897   74.2118   -3.9427 O.3     1  UNL1       -0.3112
      5 C          19.4565   72.9595   -3.3683 C.3     1  UNL1        0.1811
      6 O          17.4832   72.9814   -4.7394 O.3     1  UNL1       -0.3308
      7 O          16.1421   71.4958   -2.5065 O.3     1  UNL1       -0.3794
      8 O          16.7008   69.5111   -4.2911 O.3     1  UNL1       -0.3779
      9 C          17.4866   71.3991   -2.9762 C.3     1  UNL1        0.1713
     10 C          17.5303   70.6546   -4.2939 C.3     1  UNL1        0.1895
     11 C          17.9435   72.7939   -3.3829 C.3     1  UNL1        0.1764
     12 C          17.0577   71.7164   -5.2723 C.3     1  UNL1        0.2383
     13 H          16.1592   72.0126   -1.6830 H       1  UNL1        0.2105
     14 H          17.0011   68.9335   -3.5684 H       1  UNL1        0.2106
     15 O          16.0778   69.9126   -7.2119 O.2     1  UNL1       -0.2464
     16 O          19.3072   71.1490  -10.2583 O.2     1  UNL1       -0.2670
     17 N          17.6226   71.5467   -6.5805 N.ar    1  UNL1       -0.2551
     18 N          17.6869   70.5291   -8.7274 N.ar    1  UNL1       -0.2743
     19 C          17.0557   70.6132   -7.4793 C.ar    1  UNL1        0.3323
     20 C          18.7269   72.3008   -6.9618 C.ar    1  UNL1        0.0869
     21 C          19.3170   72.2094   -8.1556 C.ar    1  UNL1        0.0795
     22 C          18.7872   71.2576   -9.1521 C.ar    1  UNL1        0.2626
     23 H          17.2967   69.8639   -9.3896 H       1  UNL1        0.1734
     24 O          21.0671   74.4778   -1.7741 O.3     1  UNL1       -0.2703
     25 P          21.6490   74.9381   -0.3381 P.3     1  UNL1        0.2208
     26 O          20.3145   75.2647    0.5156 O.3     1  UNL1       -0.4371
     27 O          22.6336   76.0702   -0.4067 O.2     1  UNL1       -0.5170
     28 O          22.2334   73.5852    0.3191 O.3     1  UNL1       -0.2858
     29 O          20.9168   71.7330   -0.3407 O.3     1  UNL1       -0.3226
     30 O          23.6293   69.9844    2.2793 O.3     1  UNL1       -0.3794
     31 O          22.4514   72.5834    2.8826 O.3     1  UNL1       -0.3775
     32 O          21.6901   69.1060    0.5192 O.3     1  UNL1       -0.3792
     33 C          23.1360   70.8816    1.2883 C.3     1  UNL1        0.1718
     34 C          21.9835   71.7196    1.8521 C.3     1  UNL1        0.1968
     35 C          22.6531   70.0707    0.0826 C.3     1  UNL1        0.1723
     36 C          21.3345   72.5633    0.7479 C.3     1  UNL1        0.2706
     37 C          21.9910   71.0022   -0.9304 C.3     1  UNL1        0.1830
     38 H          24.3537   69.4742    1.8787 H       1  UNL1        0.2105
     39 H          21.6912   73.0986    3.2011 H       1  UNL1        0.2106
     40 H          20.8593   69.5686    0.7216 H       1  UNL1        0.2106
     41 O          20.1832   69.7287   -1.7136 O.co2   1  UNL1       -0.5466
     42 O          21.9051   70.0885   -3.1636 O.co2   1  UNL1       -0.5466
     43 C          21.3888   70.2369   -2.0655 C.2     1  UNL1        0.0799
@<TRIPOS>UNITY_ATOM_ATTR
41 1
charge -1
@<TRIPOS>BOND
     1     1     4    1
     2     1    24    1
     3     1     2    1
     4     1     3    2
     5    25    28    1
     6    25    24    1
     7    25    26    1
     8    25    27    2
     9     6    11    1
    10     6    12    1
    11    29    36    1
    12    29    37    1
    13     7     9    1
    14     7    13    1
    15     8    10    1
    16     8    14    1
    17     4     5    1
    18    28    36    1
    19    30    33    1
    20    30    38    1
    21    31    34    1
    22    31    39    1
    23    32    35    1
    24    32    40    1
    25    41    43   ar
    26    15    19    2
    27    42    43   ar
    28    16    22    2
    29    17    12    1
    30    17    19   ar
    31    17    20   ar
    32    18    19   ar
    33    18    22   ar
    34    18    23    1
    35     9    10    1
    36     9    11    1
    37    10    12    1
    38    11     5    1
    39    33    34    1
    40    33    35    1
    41    34    36    1
    42    35    37    1
    43    37    43    1
    44    20    21   ar
    45    21    22   ar
@<TRIPOS>MOLECULE
UDP-glaA
 43 45 0 0 0
SMALL
GASTEIGER

@<TRIPOS>ATOM
      1 P          22.0528   73.3979   -5.1444 P.3     1  UNL1        0.2189
      2 O          21.5907   74.9315   -5.3722 O.3     1  UNL1       -0.4371
      3 O          23.5170   73.2117   -4.8728 O.2     1  UNL1       -0.5170
      4 O          21.4736   72.6200   -6.4386 O.3     1  UNL1       -0.3112
      5 C          20.7687   73.3647   -7.4173 C.3     1  UNL1        0.1811
      6 O          20.0452   71.1070   -7.8094 O.3     1  UNL1       -0.3308
      7 O          18.5156   72.2011  -10.1450 O.3     1  UNL1       -0.3794
      8 O          16.5794   71.9156   -8.2461 O.3     1  UNL1       -0.3779
      9 C          18.7601   72.7919   -8.8687 C.3     1  UNL1        0.1713
     10 C          17.9063   72.1268   -7.8098 C.3     1  UNL1        0.1895
     11 C          20.1672   72.4043   -8.4334 C.3     1  UNL1        0.1764
     12 C          18.6560   70.8273   -7.5701 C.3     1  UNL1        0.2383
     13 H          19.1111   72.6311  -10.7822 H       1  UNL1        0.2105
     14 H          16.2074   72.7828   -8.4822 H       1  UNL1        0.2106
     15 O          16.2556   69.7729   -6.5205 O.2     1  UNL1       -0.2464
     16 O          18.1781   69.0074   -2.4027 O.2     1  UNL1       -0.2670
     17 N          18.5012   70.3447   -6.2276 N.ar    1  UNL1       -0.2551
     18 N          17.2144   69.3929   -4.4706 N.ar    1  UNL1       -0.2743
     19 C          17.2529   69.8356   -5.7993 C.ar    1  UNL1        0.3323
     20 C          19.5792   70.3789   -5.3501 C.ar    1  UNL1        0.0869
     21 C          19.5267   69.9525   -4.0862 C.ar    1  UNL1        0.0795
     22 C          18.2597   69.4071   -3.5601 C.ar    1  UNL1        0.2626
     23 H          16.3268   69.0233   -4.1407 H       1  UNL1        0.1734
     24 O          21.0782   72.8987   -3.9544 O.3     1  UNL1       -0.2703
     25 P          20.5182   73.6697   -2.6488 P.3     1  UNL1        0.2208
     26 O          18.9132   73.5969   -2.8350 O.3     1  UNL1       -0.4371
     27 O          21.0598   75.0597   -2.4748 O.2     1  UNL1       -0.5170
     28 O          20.8324   72.6730   -1.4193 O.3     1  UNL1       -0.2858
     29 O          22.3057   73.1179    0.3782 O.3     1  UNL1       -0.3226
     30 O          22.3448   68.9639    0.2277 O.3     1  UNL1       -0.3794
     31 O          22.3818   70.5359   -2.2286 O.3     1  UNL1       -0.3775
     32 O          23.3097   70.9181    1.9247 O.3     1  UNL1       -0.3792
     33 C          21.8275   70.2876    0.1246 C.3     1  UNL1        0.1718
     34 C          22.6009   71.0829   -0.9326 C.3     1  UNL1        0.1968
     35 C          21.9477   70.9738    1.4881 C.3     1  UNL1        0.1723
     36 C          22.1676   72.5541   -0.9303 C.3     1  UNL1        0.2706
     37 C          21.5308   72.4377    1.3643 C.3     1  UNL1        0.1830
     38 H          21.8284   68.4993    0.9081 H       1  UNL1        0.2105
     39 H          22.8820   71.0760   -2.8634 H       1  UNL1        0.2106
     40 H          23.8283   71.5516    1.4003 H       1  UNL1        0.2106
     41 O          21.5617   72.3673    3.7091 O.co2   1  UNL1       -0.5466
     42 O          22.0730   74.3583    2.7235 O.co2   1  UNL1       -0.5466
     43 C          21.7553   73.1806    2.6429 C.2     1  UNL1        0.0799
@<TRIPOS>UNITY_ATOM_ATTR
41 1
charge -1
@<TRIPOS>BOND
     1     1     4    1
     2     1    24    1
     3     1     2    1
     4     1     3    2
     5    25    28    1
     6    25    24    1
     7    25    26    1
     8    25    27    2
     9     6    11    1
    10     6    12    1
    11    29    36    1
    12    29    37    1
    13     7     9    1
    14     7    13    1
    15     8    10    1
    16     8    14    1
    17     4     5    1
    18    28    36    1
    19    30    33    1
    20    30    38    1
    21    31    34    1
    22    31    39    1
    23    32    35    1
    24    32    40    1
    25    41    43   ar
    26    15    19    2
    27    42    43   ar
    28    16    22    2
    29    17    12    1
    30    17    19   ar
    31    17    20   ar
    32    18    19   ar
    33    18    22   ar
    34    18    23    1
    35     9    10    1
    36     9    11    1
    37    10    12    1
    38    11     5    1
    39    33    34    1
    40    33    35    1
    41    34    36    1
    42    35    37    1
    43    37    43    1
    44    20    21   ar
    45    21    22   ar
@<TRIPOS>MOLECULE
UDP-glaA
 43 45 0 0 0
SMALL
GASTEIGER

@<TRIPOS>ATOM
      1 P          20.9792   75.1918   -3.4348 P.3     1  UNL1        0.2189
      2 O          21.0262   75.6863   -4.9745 O.3     1  UNL1       -0.4371
      3 O          19.6108   74.8533   -2.9202 O.2     1  UNL1       -0.5170
      4 O          21.7662   76.3521   -2.6286 O.3     1  UNL1       -0.3112
      5 C          22.7042   75.9709   -1.6366 C.3     1  UNL1        0.1811
      6 O          21.4822   75.0947    0.2377 O.3     1  UNL1       -0.3308
      7 O          22.5666   77.4183    1.7921 O.3     1  UNL1       -0.3794
      8 O          24.1822   75.3682    2.5810 O.3     1  UNL1       -0.3779
      9 C          23.1917   76.6473    0.7663 C.3     1  UNL1        0.1713
     10 C          23.5912   75.2880    1.3005 C.3     1  UNL1        0.1895
     11 C          22.1290   76.2855   -0.2630 C.3     1  UNL1        0.1764
     12 C          22.2624   74.5518    1.3156 C.3     1  UNL1        0.2383
     13 H          22.2936   78.2627    1.3945 H       1  UNL1        0.2105
     14 H          24.9632   75.9434    2.5075 H       1  UNL1        0.2106
     15 O          22.1621   72.6277    3.3804 O.2     1  UNL1       -0.2464
     16 O          22.8678   69.1580    0.4306 O.2     1  UNL1       -0.2670
     17 N          22.4162   73.1391    1.1156 N.ar    1  UNL1       -0.2551
     18 N          22.5141   70.9012    1.9102 N.ar    1  UNL1       -0.2743
     19 C          22.3501   72.2578    2.2200 C.ar    1  UNL1        0.3323
     20 C          22.6301   72.6394   -0.1643 C.ar    1  UNL1        0.0869
     21 C          22.7840   71.3432   -0.4434 C.ar    1  UNL1        0.0795
     22 C          22.7294   70.3567    0.6537 C.ar    1  UNL1        0.2626
     23 H          22.4710   70.2493    2.6888 H       1  UNL1        0.1734
     24 O          22.0288   73.9616   -3.4171 O.3     1  UNL1       -0.2703
     25 P          22.2543   72.7453   -4.4575 P.3     1  UNL1        0.2208
     26 O          23.3761   71.8364   -3.7282 O.3     1  UNL1       -0.4371
     27 O          22.6185   73.1830   -5.8473 O.2     1  UNL1       -0.5170
     28 O          20.8997   71.8731   -4.3667 O.3     1  UNL1       -0.2858
     29 O          19.0686   71.7944   -2.8700 O.3     1  UNL1       -0.3226
     30 O          19.6984   67.7678   -3.6883 O.3     1  UNL1       -0.3794
     31 O          21.9566   69.5670   -3.2769 O.3     1  UNL1       -0.3775
     32 O          17.7905   69.2725   -2.3745 O.3     1  UNL1       -0.3792
     33 C          19.6458   69.1730   -3.9183 C.3     1  UNL1        0.1718
     34 C          20.6069   69.9052   -2.9757 C.3     1  UNL1        0.1968
     35 C          18.2126   69.6595   -3.6864 C.3     1  UNL1        0.1723
     36 C          20.4329   71.4243   -3.0952 C.3     1  UNL1        0.2706
     37 C          18.1647   71.1824   -3.7888 C.3     1  UNL1        0.1830
     38 H          19.0742   67.3463   -4.3033 H       1  UNL1        0.2105
     39 H          22.5266   70.0600   -2.6630 H       1  UNL1        0.2106
     40 H          18.2401   69.8398   -1.7255 H       1  UNL1        0.2106
     41 O          16.7588   72.0783   -2.1381 O.co2   1  UNL1       -0.5466
     42 O          15.8728   71.8072   -4.2210 O.co2   1  UNL1       -0.5466
     43 C          16.8096   71.7118   -3.4415 C.2     1  UNL1        0.0799
@<TRIPOS>UNITY_ATOM_ATTR
41 1
charge -1
@<TRIPOS>BOND
     1     1     4    1
     2     1    24    1
     3     1     2    1
     4     1     3    2
     5    25    28    1
     6    25    24    1
     7    25    26    1
     8    25    27    2
     9     6    11    1
    10     6    12    1
    11    29    36    1
    12    29    37    1
    13     7     9    1
    14     7    13    1
    15     8    10    1
    16     8    14    1
    17     4     5    1
    18    28    36    1
    19    30    33    1
    20    30    38    1
    21    31    34    1
    22    31    39    1
    23    32    35    1
    24    32    40    1
    25    41    43   ar
    26    15    19    2
    27    42    43   ar
    28    16    22    2
    29    17    12    1
    30    17    19   ar
    31    17    20   ar
    32    18    19   ar
    33    18    22   ar
    34    18    23    1
    35     9    10    1
    36     9    11    1
    37    10    12    1
    38    11     5    1
    39    33    34    1
    40    33    35    1
    41    34    36    1
    42    35    37    1
    43    37    43    1
    44    20    21   ar
    45    21    22   ar
@<TRIPOS>MOLECULE
UDP-glaA
 43 45 0 0 0
SMALL
GASTEIGER

@<TRIPOS>ATOM
      1 P          21.6327   73.4313   -5.2880 P.3     1  UNL1        0.2189
      2 O          21.0550   74.8864   -5.6959 O.3     1  UNL1       -0.4371
      3 O          22.7432   72.9239   -6.1606 O.2     1  UNL1       -0.5170
      4 O          20.3153   72.4963   -5.2119 O.3     1  UNL1       -0.3112
      5 C          20.4434   71.1872   -4.6837 C.3     1  UNL1        0.1811
      6 O          18.2846   71.8983   -3.9039 O.3     1  UNL1       -0.3308
      7 O          18.1572   69.2819   -2.4445 O.3     1  UNL1       -0.3794
      8 O          16.6081   68.8154   -4.6395 O.3     1  UNL1       -0.3779
      9 C          18.7256   69.5779   -3.7200 C.3     1  UNL1        0.1713
     10 C          17.6323   69.7823   -4.7475 C.3     1  UNL1        0.1895
     11 C          19.3545   70.9629   -3.6441 C.3     1  UNL1        0.1764
     12 C          17.1487   71.1845   -4.4192 C.3     1  UNL1        0.2383
     13 H          18.8915   69.1982   -1.8124 H       1  UNL1        0.2105
     14 H          17.0180   67.9408   -4.7541 H       1  UNL1        0.2106
     15 O          15.2821   73.3017   -4.3242 O.2     1  UNL1       -0.2464
     16 O          15.2925   73.7595   -8.9100 O.2     1  UNL1       -0.2670
     17 N          16.6469   71.8753   -5.5726 N.ar    1  UNL1       -0.2551
     18 N          15.2881   73.5279   -6.6078 N.ar    1  UNL1       -0.2743
     19 C          15.7109   72.9243   -5.4162 C.ar    1  UNL1        0.3323
     20 C          17.0819   71.5116   -6.8422 C.ar    1  UNL1        0.0869
     21 C          16.6697   72.0972   -7.9687 C.ar    1  UNL1        0.0795
     22 C          15.6920   73.2007   -7.8930 C.ar    1  UNL1        0.2626
     23 H          14.6148   74.2842   -6.5196 H       1  UNL1        0.1734
     24 O          22.0323   73.6230   -3.7327 O.3     1  UNL1       -0.2703
     25 P          23.3776   74.1994   -3.0470 P.3     1  UNL1        0.2208
     26 O          23.1577   75.8013   -3.0871 O.3     1  UNL1       -0.4371
     27 O          24.6488   73.7317   -3.6959 O.2     1  UNL1       -0.5170
     28 O          23.2419   73.8075   -1.4875 O.3     1  UNL1       -0.2858
     29 O          21.6983   72.1451   -0.8146 O.3     1  UNL1       -0.3226
     30 O          22.4713   74.1153    2.7632 O.3     1  UNL1       -0.3794
     31 O          22.1446   75.6177    0.2849 O.3     1  UNL1       -0.3775
     32 O          21.1325   71.8290    1.9816 O.3     1  UNL1       -0.3792
     33 C          22.7211   73.5749    1.4686 C.3     1  UNL1        0.1718
     34 C          21.8143   74.2403    0.4277 C.3     1  UNL1        0.1968
     35 C          22.4603   72.0665    1.5028 C.3     1  UNL1        0.1723
     36 C          21.9523   73.5487   -0.9343 C.3     1  UNL1        0.2706
     37 C          22.5844   71.4922    0.0932 C.3     1  UNL1        0.1830
     38 H          23.0639   73.6645    3.3886 H       1  UNL1        0.2105
     39 H          21.5528   75.9930   -0.3888 H       1  UNL1        0.2106
     40 H          20.5037   72.0663    1.2791 H       1  UNL1        0.2106
     41 O          20.9360   69.8897   -0.3741 O.co2   1  UNL1       -0.5466
     42 O          22.9493   69.1215    0.3696 O.co2   1  UNL1       -0.5466
     43 C          22.2109   70.0444    0.0574 C.2     1  UNL1        0.0799
@<TRIPOS>UNITY_ATOM_ATTR
41 1
charge -1
@<TRIPOS>BOND
     1     1     4    1
     2     1    24    1
     3     1     2    1
     4     1     3    2
     5    25    28    1
     6    25    24    1
     7    25    26    1
     8    25    27    2
     9     6    11    1
    10     6    12    1
    11    29    36    1
    12    29    37    1
    13     7     9    1
    14     7    13    1
    15     8    10    1
    16     8    14    1
    17     4     5    1
    18    28    36    1
    19    30    33    1
    20    30    38    1
    21    31    34    1
    22    31    39    1
    23    32    35    1
    24    32    40    1
    25    41    43   ar
    26    15    19    2
    27    42    43   ar
    28    16    22    2
    29    17    12    1
    30    17    19   ar
    31    17    20   ar
    32    18    19   ar
    33    18    22   ar
    34    18    23    1
    35     9    10    1
    36     9    11    1
    37    10    12    1
    38    11     5    1
    39    33    34    1
    40    33    35    1
    41    34    36    1
    42    35    37    1
    43    37    43    1
    44    20    21   ar
    45    21    22   ar
@<TRIPOS>MOLECULE
UDP-glaA
 43 45 0 0 0
SMALL
GASTEIGER

@<TRIPOS>ATOM
      1 P          20.6799   75.4745   -3.6853 P.3     1  UNL1        0.2189
      2 O          20.9720   75.9043   -2.1533 O.3     1  UNL1       -0.4371
      3 O          20.1616   76.5753   -4.5638 O.2     1  UNL1       -0.5170
      4 O          19.7267   74.1750   -3.5506 O.3     1  UNL1       -0.3112
      5 C          18.6940   73.9905   -4.5039 C.3     1  UNL1        0.1811
      6 O          17.2246   72.2308   -5.2239 O.3     1  UNL1       -0.3308
      7 O          17.6237   71.0381   -2.5019 O.3     1  UNL1       -0.3794
      8 O          19.2912   69.5430   -4.0574 O.3     1  UNL1       -0.3779
      9 C          18.5541   71.7410   -3.3252 C.3     1  UNL1        0.1713
     10 C          19.0078   70.8632   -4.4725 C.3     1  UNL1        0.1895
     11 C          17.7981   72.8469   -4.0498 C.3     1  UNL1        0.1764
     12 C          17.8188   70.9363   -5.4153 C.3     1  UNL1        0.2383
     13 H          17.3322   71.6511   -1.8056 H       1  UNL1        0.2105
     14 H          19.9848   69.5925   -3.3773 H       1  UNL1        0.2106
     15 O          16.0174   70.4129   -7.5263 O.2     1  UNL1       -0.2464
     16 O          19.3992   70.4180  -10.6571 O.2     1  UNL1       -0.2670
     17 N          18.2010   70.7966   -6.7915 N.ar    1  UNL1       -0.2551
     18 N          17.7026   70.4152   -9.0839 N.ar    1  UNL1       -0.2743
     19 C          17.2184   70.5333   -7.7744 C.ar    1  UNL1        0.3323
     20 C          19.5372   70.9202   -7.1557 C.ar    1  UNL1        0.0869
     21 C          19.9829   70.8054   -8.4087 C.ar    1  UNL1        0.0795
     22 C          19.0216   70.5298   -9.4948 C.ar    1  UNL1        0.2626
     23 H          17.0141   70.2254   -9.8071 H       1  UNL1        0.1734
     24 O          22.0908   74.8423   -4.1595 O.3     1  UNL1       -0.2703
     25 P          23.2504   74.0897   -3.3219 P.3     1  UNL1        0.2208
     26 O          23.9666   75.2946   -2.5148 O.3     1  UNL1       -0.4371
     27 O          24.1831   73.2669   -4.1637 O.2     1  UNL1       -0.5170
     28 O          22.4602   73.2533   -2.1905 O.3     1  UNL1       -0.2858
     29 O          22.8399   72.4313   -0.0043 O.3     1  UNL1       -0.3226
     30 O          21.2083   69.1168   -1.9099 O.3     1  UNL1       -0.3794
     31 O          23.1439   70.8118   -3.2834 O.3     1  UNL1       -0.3775
     32 O          21.8879   69.8103    0.6760 O.3     1  UNL1       -0.3792
     33 C          21.4253   70.4895   -1.5954 C.3     1  UNL1        0.1718
     34 C          22.8779   70.8813   -1.8865 C.3     1  UNL1        0.1968
     35 C          21.1088   70.7143   -0.1143 C.3     1  UNL1        0.1723
     36 C          23.1662   72.3043   -1.3922 C.3     1  UNL1        0.2706
     37 C          21.4705   72.1456    0.2763 C.3     1  UNL1        0.1830
     38 H          20.2791   68.9130   -1.7083 H       1  UNL1        0.2105
     39 H          24.0692   71.0766   -3.4194 H       1  UNL1        0.2106
     40 H          22.8099   70.1186    0.6791 H       1  UNL1        0.2106
     41 O          21.8006   71.3301    2.4511 O.co2   1  UNL1       -0.5466
     42 O          20.7825   73.3596    2.2467 O.co2   1  UNL1       -0.5466
     43 C          21.2994   72.3720    1.7448 C.2     1  UNL1        0.0799
@<TRIPOS>UNITY_ATOM_ATTR
41 1
charge -1
@<TRIPOS>BOND
     1     1     4    1
     2     1    24    1
     3     1     2    1
     4     1     3    2
     5    25    28    1
     6    25    24    1
     7    25    26    1
     8    25    27    2
     9     6    11    1
    10     6    12    1
    11    29    36    1
    12    29    37    1
    13     7     9    1
    14     7    13    1
    15     8    10    1
    16     8    14    1
    17     4     5    1
    18    28    36    1
    19    30    33    1
    20    30    38    1
    21    31    34    1
    22    31    39    1
    23    32    35    1
    24    32    40    1
    25    41    43   ar
    26    15    19    2
    27    42    43   ar
    28    16    22    2
    29    17    12    1
    30    17    19   ar
    31    17    20   ar
    32    18    19   ar
    33    18    22   ar
    34    18    23    1
    35     9    10    1
    36     9    11    1
    37    10    12    1
    38    11     5    1
    39    33    34    1
    40    33    35    1
    41    34    36    1
    42    35    37    1
    43    37    43    1
    44    20    21   ar
    45    21    22   ar
@<TRIPOS>MOLECULE
UDP-glaA
 43 45 0 0 0
SMALL
GASTEIGER

@<TRIPOS>ATOM
      1 P          22.0144   70.9088   -3.0687 P.3     1  UNL1        0.2189
      2 O          21.2409   69.5033   -2.8597 O.3     1  UNL1       -0.4371
      3 O          23.5038   70.7960   -3.2145 O.2     1  UNL1       -0.5170
      4 O          21.4957   71.8254   -1.8413 O.3     1  UNL1       -0.3112
      5 C          22.4370   72.2577   -0.8737 C.3     1  UNL1        0.1811
      6 O          21.4416   74.3570   -0.2601 O.3     1  UNL1       -0.3308
      7 O          24.1232   75.5779   -0.8166 O.3     1  UNL1       -0.3794
      8 O          24.1056   75.3940    1.9040 O.3     1  UNL1       -0.3779
      9 C          23.8101   74.3057   -0.2498 C.3     1  UNL1        0.1713
     10 C          23.3240   74.4707    1.1746 C.3     1  UNL1        0.1895
     11 C          22.5677   73.7722   -0.9508 C.3     1  UNL1        0.1764
     12 C          21.8969   74.9488    0.9678 C.3     1  UNL1        0.2383
     13 H          24.3918   75.4262   -1.7388 H       1  UNL1        0.2105
     14 H          25.0230   75.0707    1.8971 H       1  UNL1        0.2106
     15 O          22.3023   72.6707    2.5868 O.2     1  UNL1       -0.2464
     16 O          18.4789   73.4963    5.0237 O.2     1  UNL1       -0.2670
     17 N          21.0237   74.5451    2.0327 N.ar    1  UNL1       -0.2551
     18 N          20.3978   73.0830    3.7989 N.ar    1  UNL1       -0.2743
     19 C          21.3171   73.3839    2.7852 C.ar    1  UNL1        0.3323
     20 C          19.8905   75.2969    2.3225 C.ar    1  UNL1        0.0869
     21 C          19.0239   74.9971    3.2926 C.ar    1  UNL1        0.0795
     22 C          19.2568   73.7998    4.1244 C.ar    1  UNL1        0.2626
     23 H          20.5883   72.2521    4.3524 H       1  UNL1        0.1734
     24 O          21.2594   71.5515   -4.3462 O.3     1  UNL1       -0.2703
     25 P          21.4357   72.9853   -5.0712 P.3     1  UNL1        0.2208
     26 O          22.9694   72.9557   -5.5841 O.3     1  UNL1       -0.4371
     27 O          21.0956   74.1614   -4.2012 O.2     1  UNL1       -0.5170
     28 O          20.5526   72.8743   -6.4172 O.3     1  UNL1       -0.2858
     29 O          19.0388   71.0565   -6.3591 O.3     1  UNL1       -0.3226
     30 O          18.6363   72.4005  -10.2721 O.3     1  UNL1       -0.3794
     31 O          21.2644   72.2662   -9.0146 O.3     1  UNL1       -0.3775
     32 O          17.3565   70.5802   -8.6354 O.3     1  UNL1       -0.3792
     33 C          18.8470   72.4672   -8.8644 C.3     1  UNL1        0.1718
     34 C          20.0929   71.6660   -8.4719 C.3     1  UNL1        0.1968
     35 C          17.6150   71.9024   -8.1520 C.3     1  UNL1        0.1723
     36 C          20.2308   71.5888   -6.9463 C.3     1  UNL1        0.2706
     37 C          17.8779   71.8335   -6.6492 C.3     1  UNL1        0.1830
     38 H          17.8383   72.9180  -10.4741 H       1  UNL1        0.2105
     39 H          22.0255   71.7314   -8.7326 H       1  UNL1        0.2106
     40 H          18.0241   69.9793   -8.2634 H       1  UNL1        0.2106
     41 O          15.8479   72.0835   -5.5000 O.co2   1  UNL1       -0.5466
     42 O          16.6482   69.9629   -5.7443 O.co2   1  UNL1       -0.5466
     43 C          16.7505   71.1674   -5.9265 C.2     1  UNL1        0.0799
@<TRIPOS>UNITY_ATOM_ATTR
41 1
charge -1
@<TRIPOS>BOND
     1     1     4    1
     2     1    24    1
     3     1     2    1
     4     1     3    2
     5    25    28    1
     6    25    24    1
     7    25    26    1
     8    25    27    2
     9     6    11    1
    10     6    12    1
    11    29    36    1
    12    29    37    1
    13     7     9    1
    14     7    13    1
    15     8    10    1
    16     8    14    1
    17     4     5    1
    18    28    36    1
    19    30    33    1
    20    30    38    1
    21    31    34    1
    22    31    39    1
    23    32    35    1
    24    32    40    1
    25    41    43   ar
    26    15    19    2
    27    42    43   ar
    28    16    22    2
    29    17    12    1
    30    17    19   ar
    31    17    20   ar
    32    18    19   ar
    33    18    22   ar
    34    18    23    1
    35     9    10    1
    36     9    11    1
    37    10    12    1
    38    11     5    1
    39    33    34    1
    40    33    35    1
    41    34    36    1
    42    35    37    1
    43    37    43    1
    44    20    21   ar
    45    21    22   ar
