@<TRIPOS>MOLECULE
UD1
 46 48 0 0 0
SMALL
GASTEIGER

@<TRIPOS>ATOM
      1 P          20.5510   71.1320   -3.1500 P.3     1  UNL1        0.2189
      2 O          20.2566   72.5700   -2.9644 O.2     1  UNL1       -0.5170
      3 O          21.0194   70.8718   -4.6684 O.3     1  UNL1       -0.4371
      4 O          19.2263   70.2696   -2.8429 O.3     1  UNL1       -0.3112
      5 C          18.1857   71.2015   -2.5443 C.3     1  UNL1        0.1811
      6 C          16.7781   70.6007   -5.7977 C.3     1  UNL1        0.2383
      7 C          16.8660   69.1972   -5.1476 C.3     1  UNL1        0.1895
      8 O          15.8222   68.3470   -5.6239 O.3     1  UNL1       -0.3779
      9 C          16.6720   69.5222   -3.6436 C.3     1  UNL1        0.1713
     10 C          17.0343   71.0159   -3.5336 C.3     1  UNL1        0.1764
     11 O          17.4372   71.4577   -4.8412 O.3     1  UNL1       -0.3308
     12 O          15.3147   69.3001   -3.2547 O.3     1  UNL1       -0.3794
     13 H          15.9334   67.4931   -5.1833 H       1  UNL1        0.2106
     14 H          15.1318   68.3626   -3.4025 H       1  UNL1        0.2105
     15 N          17.4805   70.6235   -7.0812 N.ar    1  UNL1       -0.2551
     16 C          16.7808   70.5319   -8.2255 C.ar    1  UNL1        0.3323
     17 N          17.4003   70.5542   -9.4204 N.ar    1  UNL1       -0.2743
     18 C          18.7427   70.6603   -9.4880 C.ar    1  UNL1        0.2626
     19 C          19.4921   70.7515   -8.2910 C.ar    1  UNL1        0.0795
     20 C          18.8449   70.7321   -7.1061 C.ar    1  UNL1        0.0869
     21 O          15.5694   70.4358   -8.1809 O.2     1  UNL1       -0.2464
     22 O          19.3042   70.6757  -10.5678 O.2     1  UNL1       -0.2670
     23 H          16.8794   70.4919  -10.2359 H       1  UNL1        0.1734
     24 O          21.7246   70.6900   -2.1420 O.3     1  UNL1       -0.2703
     25 P          22.9700   71.6703   -2.4201 P.3     1  UNL1        0.2208
     26 O          22.5914   72.6708   -3.4421 O.2     1  UNL1       -0.5170
     27 O          24.2231   70.8099   -2.9507 O.3     1  UNL1       -0.4371
     28 O          23.3766   72.4232   -1.0569 O.3     1  UNL1       -0.2865
     29 C          22.5769   71.8579   -0.0167 C.3     1  UNL1        0.2611
     30 C          21.8469   72.9790    0.7250 C.3     1  UNL1        0.1582
     31 C          22.8798   73.9520    1.3047 C.3     1  UNL1        0.1625
     32 C          23.8824   73.1573    2.1481 C.3     1  UNL1        0.1686
     33 C          24.4612   72.0244    1.2979 C.3     1  UNL1        0.1760
     34 O          22.2199   74.9187    2.1241 O.3     1  UNL1       -0.3801
     35 O          24.9365   74.0212    2.5772 O.3     1  UNL1       -0.3794
     36 O          23.4145   71.1443    0.8903 O.3     1  UNL1       -0.3263
     37 H          22.9051   75.5089    2.4668 H       1  UNL1        0.2105
     38 H          25.5439   73.4816    3.1029 H       1  UNL1        0.2105
     39 C          19.7462   74.0913    0.1918 C.2     1  UNL1        0.2231
     40 C          18.8433   74.8248   -0.7669 C.3     1  UNL1        0.0946
     41 N          20.9696   73.6920   -0.2058 N.am    1  UNL1       -0.2994
     42 O          19.3710   73.8599    1.3214 O.2     1  UNL1       -0.2751
     43 H          21.2700   73.8769   -1.1098 H       1  UNL1        0.1496
     44 C          25.4882   71.2442    2.1211 C.3     1  UNL1        0.1693
     45 O          24.9804   69.9387    2.4034 O.3     1  UNL1       -0.3794
     46 H          25.6561   69.4818    2.9224 H       1  UNL1        0.2105
@<TRIPOS>BOND
     1    29    30    1
     2    29    28    1
     3    29    36    1
     4    30    31    1
     5    30    41    1
     6    31    32    1
     7    31    34    1
     8    32    33    1
     9    32    35    1
    10    33    44    1
    11    33    36    1
    12    44    45    1
    13    39    40    1
    14    39    41   am
    15    39    42    2
    16    41    43    1
    17    28    25    1
    18    34    37    1
    19    35    38    1
    20    45    46    1
    21    15    16   ar
    22    15    20   ar
    23    15     6    1
    24    16    17   ar
    25    16    21    2
    26    17    18   ar
    27    17    23    1
    28    18    19   ar
    29    18    22    2
    30    19    20   ar
    31     6     7    1
    32     6    11    1
    33     7     8    1
    34     7     9    1
    35     8    13    1
    36     9    10    1
    37     9    12    1
    38    10    11    1
    39    10     5    1
    40    12    14    1
    41     5     4    1
    42     4     1    1
    43     1     2    2
    44     1     3    1
    45     1    24    1
    46    24    25    1
    47    25    26    2
    48    25    27    1
@<TRIPOS>MOLECULE
UD1
 46 48 0 0 0
SMALL
GASTEIGER

@<TRIPOS>ATOM
      1 P          20.4205   70.9850   -2.0890 P.3     1  UNL1        0.2189
      2 O          20.4927   70.6017   -0.6619 O.2     1  UNL1       -0.5170
      3 O          20.3705   72.5896   -2.2119 O.3     1  UNL1       -0.4371
      4 O          19.0922   70.3557   -2.7465 O.3     1  UNL1       -0.3112
      5 C          18.0457   71.3096   -2.5589 C.3     1  UNL1        0.1811
      6 C          16.7328   70.5385   -5.8160 C.3     1  UNL1        0.2383
      7 C          16.8652   69.1631   -5.1153 C.3     1  UNL1        0.1895
      8 O          15.8678   68.2537   -5.5817 O.3     1  UNL1       -0.3779
      9 C          16.6263   69.5312   -3.6278 C.3     1  UNL1        0.1713
     10 C          16.9239   71.0418   -3.5635 C.3     1  UNL1        0.1764
     11 O          17.3356   71.4549   -4.8777 O.3     1  UNL1       -0.3308
     12 O          15.2715   69.2655   -3.2580 O.3     1  UNL1       -0.3794
     13 H          16.0050   67.4210   -5.1092 H       1  UNL1        0.2106
     14 H          15.1307   68.3167   -3.3762 H       1  UNL1        0.2105
     15 N          17.4606   70.5467   -7.0856 N.ar    1  UNL1       -0.2551
     16 C          16.7791   70.5697   -8.2442 C.ar    1  UNL1        0.3323
     17 N          17.4223   70.5817   -9.4266 N.ar    1  UNL1       -0.2743
     18 C          18.7699   70.5615   -9.4673 C.ar    1  UNL1        0.2626
     19 C          19.4998   70.5312   -8.2552 C.ar    1  UNL1        0.0795
     20 C          18.8293   70.5251   -7.0831 C.ar    1  UNL1        0.0869
     21 O          15.5634   70.5882   -8.2239 O.2     1  UNL1       -0.2464
     22 O          19.3525   70.5676  -10.5359 O.2     1  UNL1       -0.2670
     23 H          16.9148   70.6032  -10.2525 H       1  UNL1        0.1734
     24 O          21.7173   70.4268   -2.8608 O.3     1  UNL1       -0.2703
     25 P          22.9457   71.3854   -2.4592 P.3     1  UNL1        0.2208
     26 O          24.1984   70.8496   -3.0359 O.2     1  UNL1       -0.5170
     27 O          23.0773   71.4470   -0.8558 O.3     1  UNL1       -0.4371
     28 O          22.6819   72.8663   -3.0318 O.3     1  UNL1       -0.2865
     29 C          23.8397   73.2319   -3.7849 C.3     1  UNL1        0.2611
     30 C          24.0223   74.7495   -3.7256 C.3     1  UNL1        0.1582
     31 C          22.7706   75.4275   -4.2941 C.3     1  UNL1        0.1625
     32 C          22.4958   74.8579   -5.6899 C.3     1  UNL1        0.1686
     33 C          22.4253   73.3320   -5.6004 C.3     1  UNL1        0.1760
     34 O          22.9880   76.8369   -4.3828 O.3     1  UNL1       -0.3801
     35 O          21.2532   75.3674   -6.1778 O.3     1  UNL1       -0.3794
     36 O          23.6741   72.8179   -5.1393 O.3     1  UNL1       -0.3263
     37 H          22.1778   77.2224   -4.7439 H       1  UNL1        0.2105
     38 H          21.1192   74.9838   -7.0561 H       1  UNL1        0.2105
     39 C          25.1041   76.1348   -2.0389 C.2     1  UNL1        0.2231
     40 C          25.3044   76.5624   -0.6073 C.3     1  UNL1        0.0946
     41 N          24.2169   75.1656   -2.3351 N.am    1  UNL1       -0.2994
     42 O          25.7422   76.6629   -2.9243 O.2     1  UNL1       -0.2751
     43 H          23.7062   74.7426   -1.6267 H       1  UNL1        0.1496
     44 C          22.1188   72.7549   -6.9839 C.3     1  UNL1        0.1693
     45 O          23.1895   73.0654   -7.8779 O.3     1  UNL1       -0.3794
     46 H          22.9570   72.6850   -8.7357 H       1  UNL1        0.2105
@<TRIPOS>BOND
     1    29    30    1
     2    29    28    1
     3    29    36    1
     4    30    31    1
     5    30    41    1
     6    31    32    1
     7    31    34    1
     8    32    33    1
     9    32    35    1
    10    33    44    1
    11    33    36    1
    12    44    45    1
    13    39    40    1
    14    39    41   am
    15    39    42    2
    16    41    43    1
    17    28    25    1
    18    34    37    1
    19    35    38    1
    20    45    46    1
    21    15    16   ar
    22    15    20   ar
    23    15     6    1
    24    16    17   ar
    25    16    21    2
    26    17    18   ar
    27    17    23    1
    28    18    19   ar
    29    18    22    2
    30    19    20   ar
    31     6     7    1
    32     6    11    1
    33     7     8    1
    34     7     9    1
    35     8    13    1
    36     9    10    1
    37     9    12    1
    38    10    11    1
    39    10     5    1
    40    12    14    1
    41     5     4    1
    42     4     1    1
    43     1     2    2
    44     1     3    1
    45     1    24    1
    46    24    25    1
    47    25    26    2
    48    25    27    1
@<TRIPOS>MOLECULE
UD1
 46 48 0 0 0
SMALL
GASTEIGER

@<TRIPOS>ATOM
      1 P          23.2560   72.0264   -3.2874 P.3     1  UNL1        0.2189
      2 O          24.1374   70.8543   -3.0919 O.2     1  UNL1       -0.5170
      3 O          23.7327   72.8452   -4.5892 O.3     1  UNL1       -0.4371
      4 O          23.3393   72.9814   -1.9936 O.3     1  UNL1       -0.3112
      5 C          22.0112   73.1015   -1.4816 C.3     1  UNL1        0.1811
      6 C          23.3072   72.0964    1.7180 C.3     1  UNL1        0.2383
      7 C          22.6024   73.4486    1.9921 C.3     1  UNL1        0.1895
      8 O          22.0805   73.4930    3.3206 O.3     1  UNL1       -0.3779
      9 C          21.4562   73.4360    0.9474 C.3     1  UNL1        0.1713
     10 C          21.9278   72.4228   -0.1135 C.3     1  UNL1        0.1764
     11 O          23.2301   71.9603    0.2831 O.3     1  UNL1       -0.3308
     12 O          20.2340   73.0059    1.5508 O.3     1  UNL1       -0.3794
     13 H          21.6572   74.3562    3.4266 H       1  UNL1        0.2106
     14 H          20.0242   73.6463    2.2437 H       1  UNL1        0.2105
     15 N          24.7021   72.1392    2.1582 N.ar    1  UNL1       -0.2551
     16 C          25.4108   70.9996    2.2383 C.ar    1  UNL1        0.3323
     17 N          26.6968   71.0096    2.6363 N.ar    1  UNL1       -0.2743
     18 C          27.2952   72.1702    2.9720 C.ar    1  UNL1        0.2626
     19 C          26.5590   73.3766    2.8980 C.ar    1  UNL1        0.0795
     20 C          25.2722   73.3386    2.4904 C.ar    1  UNL1        0.0869
     21 O          24.8850   69.9448    1.9389 O.2     1  UNL1       -0.2464
     22 O          28.4564   72.1798    3.3365 O.2     1  UNL1       -0.2670
     23 H          27.1943   70.1786    2.6837 H       1  UNL1        0.1734
     24 O          21.7392   71.5294   -3.4904 O.3     1  UNL1       -0.2703
     25 P          21.2061   72.2067   -4.8492 P.3     1  UNL1        0.2208
     26 O          21.9713   71.6751   -5.9985 O.2     1  UNL1       -0.5170
     27 O          21.4021   73.8026   -4.7670 O.3     1  UNL1       -0.4371
     28 O          19.6443   71.8686   -5.0420 O.3     1  UNL1       -0.2865
     29 C          19.5504   70.4620   -5.2745 C.3     1  UNL1        0.2611
     30 C          18.4934   70.1971   -6.3481 C.3     1  UNL1        0.1582
     31 C          17.1475   70.7586   -5.8758 C.3     1  UNL1        0.1625
     32 C          16.8323   70.1780   -4.4932 C.3     1  UNL1        0.1686
     33 C          18.0136   70.4472   -3.5585 C.3     1  UNL1        0.1760
     34 O          16.1230   70.3871   -6.7997 O.3     1  UNL1       -0.3801
     35 O          15.6565   70.7994   -3.9707 O.3     1  UNL1       -0.3794
     36 O          19.1838   69.8049   -4.0633 O.3     1  UNL1       -0.3263
     37 H          15.2960   70.7603   -6.4648 H       1  UNL1        0.2105
     38 H          15.4951   70.4062   -3.1013 H       1  UNL1        0.2105
     39 C          18.7105   70.2245   -8.7743 C.2     1  UNL1        0.2231
     40 C          19.1172   70.9002  -10.0590 C.3     1  UNL1        0.0946
     41 N          18.8878   70.8533   -7.5964 N.am    1  UNL1       -0.2994
     42 O          18.2242   69.1141   -8.8009 O.2     1  UNL1       -0.2751
     43 H          19.2772   71.7418   -7.5749 H       1  UNL1        0.1496
     44 C          17.6953   69.8997   -2.1657 C.3     1  UNL1        0.1693
     45 O          16.9416   68.6919   -2.2889 O.3     1  UNL1       -0.3794
     46 H          16.7623   68.3811   -1.3912 H       1  UNL1        0.2105
@<TRIPOS>BOND
     1    29    30    1
     2    29    28    1
     3    29    36    1
     4    30    31    1
     5    30    41    1
     6    31    32    1
     7    31    34    1
     8    32    33    1
     9    32    35    1
    10    33    44    1
    11    33    36    1
    12    44    45    1
    13    39    40    1
    14    39    41   am
    15    39    42    2
    16    41    43    1
    17    28    25    1
    18    34    37    1
    19    35    38    1
    20    45    46    1
    21    15    16   ar
    22    15    20   ar
    23    15     6    1
    24    16    17   ar
    25    16    21    2
    26    17    18   ar
    27    17    23    1
    28    18    19   ar
    29    18    22    2
    30    19    20   ar
    31     6     7    1
    32     6    11    1
    33     7     8    1
    34     7     9    1
    35     8    13    1
    36     9    10    1
    37     9    12    1
    38    10    11    1
    39    10     5    1
    40    12    14    1
    41     5     4    1
    42     4     1    1
    43     1     2    2
    44     1     3    1
    45     1    24    1
    46    24    25    1
    47    25    26    2
    48    25    27    1
@<TRIPOS>MOLECULE
UD1
 46 48 0 0 0
SMALL
GASTEIGER

@<TRIPOS>ATOM
      1 P          21.0767   71.0123   -3.6983 P.3     1  UNL1        0.2189
      2 O          21.5489   71.6473   -4.9483 O.2     1  UNL1       -0.5170
      3 O          20.6372   69.4932   -4.0008 O.3     1  UNL1       -0.4371
      4 O          19.8143   71.8311   -3.1249 O.3     1  UNL1       -0.3112
      5 C          18.8864   70.8658   -2.6272 C.3     1  UNL1        0.1811
      6 C          17.1429   70.5461   -5.7554 C.3     1  UNL1        0.2383
      7 C          17.1179   69.1204   -5.1496 C.3     1  UNL1        0.1895
      8 O          15.9430   68.4149   -5.5510 O.3     1  UNL1       -0.3779
      9 C          17.0940   69.4139   -3.6269 C.3     1  UNL1        0.1713
     10 C          17.6403   70.8503   -3.5140 C.3     1  UNL1        0.1764
     11 O          17.9794   71.2867   -4.8413 O.3     1  UNL1       -0.3308
     12 O          15.7584   69.3387   -3.1238 O.3     1  UNL1       -0.3794
     13 H          15.9888   67.5393   -5.1427 H       1  UNL1        0.2106
     14 H          15.4527   68.4348   -3.2771 H       1  UNL1        0.2105
     15 N          17.7302   70.5307   -7.0956 N.ar    1  UNL1       -0.2551
     16 C          16.9297   70.4571   -8.1731 C.ar    1  UNL1        0.3323
     17 N          17.4422   70.4453   -9.4179 N.ar    1  UNL1       -0.2743
     18 C          18.7765   70.4981   -9.6038 C.ar    1  UNL1        0.2626
     19 C          19.6312   70.5698   -8.4781 C.ar    1  UNL1        0.0795
     20 C          19.0903   70.5856   -7.2410 C.ar    1  UNL1        0.0869
     21 O          15.7241   70.4089   -8.0216 O.2     1  UNL1       -0.2464
     22 O          19.2412   70.4826  -10.7287 O.2     1  UNL1       -0.2670
     23 H          16.8496   70.3966  -10.1839 H       1  UNL1        0.1734
     24 O          22.2618   71.0226   -2.6102 O.3     1  UNL1       -0.2703
     25 P          23.0797   72.3913   -2.8265 P.3     1  UNL1        0.2208
     26 O          22.1456   73.4657   -3.2288 O.2     1  UNL1       -0.5170
     27 O          24.1834   72.1813   -3.9797 O.3     1  UNL1       -0.4371
     28 O          23.8119   72.8032   -1.4536 O.3     1  UNL1       -0.2865
     29 C          22.9696   73.7574   -0.8047 C.3     1  UNL1        0.2611
     30 C          23.8380   74.7896   -0.0833 C.3     1  UNL1        0.1582
     31 C          24.7276   74.0708    0.9371 C.3     1  UNL1        0.1625
     32 C          23.8384   73.2168    1.8471 C.3     1  UNL1        0.1686
     33 C          22.9720   72.3009    0.9800 C.3     1  UNL1        0.1760
     34 O          25.4336   75.0352    1.7202 O.3     1  UNL1       -0.3801
     35 O          24.6576   72.4257    2.7100 O.3     1  UNL1       -0.3794
     36 O          22.1327   73.0882    0.1362 O.3     1  UNL1       -0.3263
     37 H          25.9795   74.5406    2.3468 H       1  UNL1        0.2105
     38 H          24.0590   71.9044    3.2636 H       1  UNL1        0.2105
     39 C          24.4180   76.7753   -1.3698 C.2     1  UNL1        0.2231
     40 C          25.2814   77.4965   -2.3731 C.3     1  UNL1        0.0946
     41 N          24.6767   75.4908   -1.0576 N.am    1  UNL1       -0.2994
     42 O          23.4897   77.3512   -0.8438 O.2     1  UNL1       -0.2751
     43 H          25.4194   75.0296   -1.4786 H       1  UNL1        0.1496
     44 C          22.1032   71.4203    1.8805 C.3     1  UNL1        0.1693
     45 O          21.6456   70.2867    1.1405 O.3     1  UNL1       -0.3794
     46 H          21.1032   69.7598    1.7428 H       1  UNL1        0.2105
@<TRIPOS>BOND
     1    29    30    1
     2    29    28    1
     3    29    36    1
     4    30    31    1
     5    30    41    1
     6    31    32    1
     7    31    34    1
     8    32    33    1
     9    32    35    1
    10    33    44    1
    11    33    36    1
    12    44    45    1
    13    39    40    1
    14    39    41   am
    15    39    42    2
    16    41    43    1
    17    28    25    1
    18    34    37    1
    19    35    38    1
    20    45    46    1
    21    15    16   ar
    22    15    20   ar
    23    15     6    1
    24    16    17   ar
    25    16    21    2
    26    17    18   ar
    27    17    23    1
    28    18    19   ar
    29    18    22    2
    30    19    20   ar
    31     6     7    1
    32     6    11    1
    33     7     8    1
    34     7     9    1
    35     8    13    1
    36     9    10    1
    37     9    12    1
    38    10    11    1
    39    10     5    1
    40    12    14    1
    41     5     4    1
    42     4     1    1
    43     1     2    2
    44     1     3    1
    45     1    24    1
    46    24    25    1
    47    25    26    2
    48    25    27    1
@<TRIPOS>MOLECULE
UD1
 46 48 0 0 0
SMALL
GASTEIGER

@<TRIPOS>ATOM
      1 P          20.7898   72.0388   -1.8657 P.3     1  UNL1        0.2189
      2 O          21.4297   73.3676   -1.9817 O.2     1  UNL1       -0.5170
      3 O          21.8742   70.8914   -2.1824 O.3     1  UNL1       -0.4371
      4 O          19.5763   71.9343   -2.9190 O.3     1  UNL1       -0.3112
      5 C          18.6082   71.0523   -2.3488 C.3     1  UNL1        0.1811
      6 C          16.9937   70.6190   -5.5321 C.3     1  UNL1        0.2383
      7 C          17.0403   69.1950   -4.9235 C.3     1  UNL1        0.1895
      8 O          15.9272   68.4152   -5.3616 O.3     1  UNL1       -0.3779
      9 C          16.9470   69.4874   -3.4033 C.3     1  UNL1        0.1713
     10 C          17.3958   70.9561   -3.2763 C.3     1  UNL1        0.1764
     11 O          17.7500   71.4125   -4.5929 O.3     1  UNL1       -0.3308
     12 O          15.6030   69.3268   -2.9444 O.3     1  UNL1       -0.3794
     13 H          16.0156   67.5446   -4.9496 H       1  UNL1        0.2106
     14 H          15.3614   68.4049   -3.1052 H       1  UNL1        0.2105
     15 N          17.6250   70.6406   -6.8521 N.ar    1  UNL1       -0.2551
     16 C          16.8724   70.4734   -7.9534 C.ar    1  UNL1        0.3323
     17 N          17.4256   70.4926   -9.1805 N.ar    1  UNL1       -0.2743
     18 C          18.7542   70.6721   -9.3241 C.ar    1  UNL1        0.2626
     19 C          19.5591   70.8435   -8.1728 C.ar    1  UNL1        0.0795
     20 C          18.9775   70.8252   -6.9543 C.ar    1  UNL1        0.0869
     21 O          15.6726   70.3105   -7.8402 O.2     1  UNL1       -0.2464
     22 O          19.2561   70.6849  -10.4329 O.2     1  UNL1       -0.2670
     23 H          16.8669   70.3751   -9.9643 H       1  UNL1        0.1734
     24 O          20.2224   71.8448   -0.3727 O.3     1  UNL1       -0.2703
     25 P          21.4818   71.4779    0.5593 P.3     1  UNL1        0.2208
     26 O          22.7200   72.0060   -0.0546 O.2     1  UNL1       -0.5170
     27 O          21.5954   69.8784    0.7039 O.3     1  UNL1       -0.4371
     28 O          21.2827   72.1340    2.0154 O.3     1  UNL1       -0.2865
     29 C          21.4836   73.5407    1.8671 C.3     1  UNL1        0.2611
     30 C          22.6816   73.9720    2.7150 C.3     1  UNL1        0.1582
     31 C          22.4123   73.6154    4.1812 C.3     1  UNL1        0.1625
     32 C          21.0681   74.2240    4.5947 C.3     1  UNL1        0.1686
     33 C          19.9910   73.7711    3.6066 C.3     1  UNL1        0.1760
     34 O          23.4545   74.1457    5.0022 O.3     1  UNL1       -0.3801
     35 O          20.7279   73.7822    5.9102 O.3     1  UNL1       -0.3794
     36 O          20.3138   74.2343    2.2959 O.3     1  UNL1       -0.3263
     37 H          23.2455   73.8984    5.9135 H       1  UNL1        0.2105
     38 H          19.8768   74.1871    6.1300 H       1  UNL1        0.2105
     39 C          24.2442   72.1059    2.8165 C.2     1  UNL1        0.2231
     40 C          25.4826   71.3896    2.3416 C.3     1  UNL1        0.0946
     41 N          23.8843   73.2755    2.2537 N.am    1  UNL1       -0.2994
     42 O          23.5718   71.6296    3.7059 O.2     1  UNL1       -0.2751
     43 H          24.4223   73.6570    1.5420 H       1  UNL1        0.1496
     44 C          18.6381   74.3473    4.0294 C.3     1  UNL1        0.1693
     45 O          18.1079   73.5760    5.1093 O.3     1  UNL1       -0.3794
     46 H          17.2575   73.9712    5.3443 H       1  UNL1        0.2105
@<TRIPOS>BOND
     1    29    30    1
     2    29    28    1
     3    29    36    1
     4    30    31    1
     5    30    41    1
     6    31    32    1
     7    31    34    1
     8    32    33    1
     9    32    35    1
    10    33    44    1
    11    33    36    1
    12    44    45    1
    13    39    40    1
    14    39    41   am
    15    39    42    2
    16    41    43    1
    17    28    25    1
    18    34    37    1
    19    35    38    1
    20    45    46    1
    21    15    16   ar
    22    15    20   ar
    23    15     6    1
    24    16    17   ar
    25    16    21    2
    26    17    18   ar
    27    17    23    1
    28    18    19   ar
    29    18    22    2
    30    19    20   ar
    31     6     7    1
    32     6    11    1
    33     7     8    1
    34     7     9    1
    35     8    13    1
    36     9    10    1
    37     9    12    1
    38    10    11    1
    39    10     5    1
    40    12    14    1
    41     5     4    1
    42     4     1    1
    43     1     2    2
    44     1     3    1
    45     1    24    1
    46    24    25    1
    47    25    26    2
    48    25    27    1
@<TRIPOS>MOLECULE
UD1
 46 48 0 0 0
SMALL
GASTEIGER

@<TRIPOS>ATOM
      1 P          20.8622   71.4186   -2.2398 P.3     1  UNL1        0.2189
      2 O          21.3339   70.5719   -3.3575 O.2     1  UNL1       -0.5170
      3 O          21.0337   70.6201   -0.8521 O.3     1  UNL1       -0.4371
      4 O          19.3090   71.7815   -2.4606 O.3     1  UNL1       -0.3112
      5 C          18.5829   70.5535   -2.3896 C.3     1  UNL1        0.1811
      6 C          16.9799   70.4605   -5.6066 C.3     1  UNL1        0.2383
      7 C          16.9036   69.0010   -5.0925 C.3     1  UNL1        0.1895
      8 O          15.7368   68.3445   -5.5894 O.3     1  UNL1       -0.3779
      9 C          16.8146   69.2008   -3.5572 C.3     1  UNL1        0.1713
     10 C          17.3788   70.6167   -3.3306 C.3     1  UNL1        0.1764
     11 O          17.7857   71.1271   -4.6116 O.3     1  UNL1       -0.3308
     12 O          15.4562   69.1207   -3.1201 O.3     1  UNL1       -0.3794
     13 H          15.7492   67.4447   -5.2348 H       1  UNL1        0.2106
     14 H          15.1429   68.2340   -3.3429 H       1  UNL1        0.2105
     15 N          17.6279   70.5162   -6.9175 N.ar    1  UNL1       -0.2551
     16 C          16.8787   70.4802   -8.0332 C.ar    1  UNL1        0.3323
     17 N          17.4475   70.5338   -9.2521 N.ar    1  UNL1       -0.2743
     18 C          18.7878   70.6157   -9.3735 C.ar    1  UNL1        0.2626
     19 C          19.5889   70.6484   -8.2073 C.ar    1  UNL1        0.0795
     20 C          18.9920   70.5986   -6.9971 C.ar    1  UNL1        0.0869
     21 O          15.6685   70.4065   -7.9400 O.2     1  UNL1       -0.2464
     22 O          19.3034   70.6594  -10.4751 O.2     1  UNL1       -0.2670
     23 H          16.8914   70.5115  -10.0461 H       1  UNL1        0.1734
     24 O          21.7280   72.7739   -2.1907 O.3     1  UNL1       -0.2703
     25 P          23.1558   72.3907   -1.5551 P.3     1  UNL1        0.2208
     26 O          24.1069   73.5029   -1.7725 O.2     1  UNL1       -0.5170
     27 O          23.7186   71.0583   -2.2624 O.3     1  UNL1       -0.4371
     28 O          22.9887   72.1286    0.0241 O.3     1  UNL1       -0.2865
     29 C          23.2057   73.3805    0.6773 C.3     1  UNL1        0.2611
     30 C          23.6741   73.1275    2.1113 C.3     1  UNL1        0.1582
     31 C          22.6086   72.3094    2.8497 C.3     1  UNL1        0.1625
     32 C          21.2619   73.0289    2.7211 C.3     1  UNL1        0.1686
     33 C          20.9740   73.2867    1.2405 C.3     1  UNL1        0.1760
     34 O          22.9639   72.1941    4.2288 O.3     1  UNL1       -0.3801
     35 O          20.2287   72.2121    3.2751 O.3     1  UNL1       -0.3794
     36 O          21.9895   74.1250    0.6907 O.3     1  UNL1       -0.3263
     37 H          22.2686   71.6734    4.6538 H       1  UNL1        0.2105
     38 H          19.4001   72.7014    3.1728 H       1  UNL1        0.2105
     39 C          25.9392   72.7361    2.9179 C.2     1  UNL1        0.2231
     40 C          27.2381   71.9714    2.8958 C.3     1  UNL1        0.0946
     41 N          24.9359   72.3847    2.0907 N.am    1  UNL1       -0.2994
     42 O          25.7973   73.6684    3.6800 O.2     1  UNL1       -0.2751
     43 H          25.0492   71.6387    1.4805 H       1  UNL1        0.1496
     44 C          19.6154   73.9762    1.0990 C.3     1  UNL1        0.1693
     45 O          19.1762   73.8902   -0.2582 O.3     1  UNL1       -0.3794
     46 H          18.3194   74.3357   -0.3038 H       1  UNL1        0.2105
@<TRIPOS>BOND
     1    29    30    1
     2    29    28    1
     3    29    36    1
     4    30    31    1
     5    30    41    1
     6    31    32    1
     7    31    34    1
     8    32    33    1
     9    32    35    1
    10    33    44    1
    11    33    36    1
    12    44    45    1
    13    39    40    1
    14    39    41   am
    15    39    42    2
    16    41    43    1
    17    28    25    1
    18    34    37    1
    19    35    38    1
    20    45    46    1
    21    15    16   ar
    22    15    20   ar
    23    15     6    1
    24    16    17   ar
    25    16    21    2
    26    17    18   ar
    27    17    23    1
    28    18    19   ar
    29    18    22    2
    30    19    20   ar
    31     6     7    1
    32     6    11    1
    33     7     8    1
    34     7     9    1
    35     8    13    1
    36     9    10    1
    37     9    12    1
    38    10    11    1
    39    10     5    1
    40    12    14    1
    41     5     4    1
    42     4     1    1
    43     1     2    2
    44     1     3    1
    45     1    24    1
    46    24    25    1
    47    25    26    2
    48    25    27    1
@<TRIPOS>MOLECULE
UD1
 46 48 0 0 0
SMALL
GASTEIGER

@<TRIPOS>ATOM
      1 P          19.6682   71.6008   -1.4050 P.3     1  UNL1        0.2189
      2 O          19.3728   72.7696   -0.5475 O.2     1  UNL1       -0.5170
      3 O          20.5414   72.0724   -2.6729 O.3     1  UNL1       -0.4371
      4 O          18.2877   70.9495   -1.9178 O.3     1  UNL1       -0.3112
      5 C          17.6232   71.9468   -2.6950 C.3     1  UNL1        0.1811
      6 C          16.7002   70.4699   -5.8405 C.3     1  UNL1        0.2383
      7 C          17.1537   69.2729   -4.9679 C.3     1  UNL1        0.1895
      8 O          16.4479   68.0839   -5.3247 O.3     1  UNL1       -0.3779
      9 C          16.7621   69.7422   -3.5425 C.3     1  UNL1        0.1713
     10 C          16.6547   71.2741   -3.6691 C.3     1  UNL1        0.1764
     11 O          17.0027   71.6190   -5.0209 O.3     1  UNL1       -0.3308
     12 O          15.5077   69.1764   -3.1564 O.3     1  UNL1       -0.3794
     13 H          16.7754   67.3799   -4.7479 H       1  UNL1        0.2106
     14 H          15.6232   68.2169   -3.1536 H       1  UNL1        0.2105
     15 N          17.4562   70.5157   -7.0927 N.ar    1  UNL1       -0.2551
     16 C          16.8008   70.5811   -8.2647 C.ar    1  UNL1        0.3323
     17 N          17.4704   70.6283   -9.4316 N.ar    1  UNL1       -0.2743
     18 C          18.8184   70.6012   -9.4430 C.ar    1  UNL1        0.2626
     19 C          19.5209   70.5265   -8.2167 C.ar    1  UNL1        0.0795
     20 C          18.8244   70.4857   -7.0606 C.ar    1  UNL1        0.0869
     21 O          15.5851   70.6063   -8.2707 O.2     1  UNL1       -0.2464
     22 O          19.4247   70.6390  -10.4977 O.2     1  UNL1       -0.2670
     23 H          16.9816   70.6800  -10.2673 H       1  UNL1        0.1734
     24 O          20.4945   70.5096   -0.5591 O.3     1  UNL1       -0.2703
     25 P          21.5154   71.3252    0.3800 P.3     1  UNL1        0.2208
     26 O          22.6799   70.4709    0.7009 O.2     1  UNL1       -0.5170
     27 O          20.7701   71.7493    1.7427 O.3     1  UNL1       -0.4371
     28 O          22.0157   72.6470   -0.3901 O.3     1  UNL1       -0.2865
     29 C          23.4393   72.6801   -0.2748 C.3     1  UNL1        0.2611
     30 C          23.8534   73.9242    0.5130 C.3     1  UNL1        0.1582
     31 C          23.3403   75.1720   -0.2145 C.3     1  UNL1        0.1625
     32 C          23.8275   75.1277   -1.6667 C.3     1  UNL1        0.1686
     33 C          23.4126   73.7938   -2.2911 C.3     1  UNL1        0.1760
     34 O          23.8466   76.3432    0.4284 O.3     1  UNL1       -0.3801
     35 O          23.2404   76.2038   -2.4007 O.3     1  UNL1       -0.3794
     36 O          24.0195   72.7177   -1.5769 O.3     1  UNL1       -0.3263
     37 H          23.4997   77.1022   -0.0603 H       1  UNL1        0.2105
     38 H          23.5725   76.1380   -3.3073 H       1  UNL1        0.2105
     39 C          23.9822   73.3369    2.8737 C.2     1  UNL1        0.2231
     40 C          23.3866   73.2784    4.2572 C.3     1  UNL1        0.0946
     41 N          23.2754   73.8676    1.8573 N.am    1  UNL1       -0.2994
     42 O          25.0978   72.9053    2.6752 O.2     1  UNL1       -0.2751
     43 H          22.3826   74.2128    2.0159 H       1  UNL1        0.1496
     44 C          23.8662   73.7529   -3.7518 C.3     1  UNL1        0.1693
     45 O          24.3469   72.4441   -4.0652 O.3     1  UNL1       -0.3794
     46 H          24.6221   72.4616   -4.9918 H       1  UNL1        0.2105
@<TRIPOS>BOND
     1    29    30    1
     2    29    28    1
     3    29    36    1
     4    30    31    1
     5    30    41    1
     6    31    32    1
     7    31    34    1
     8    32    33    1
     9    32    35    1
    10    33    44    1
    11    33    36    1
    12    44    45    1
    13    39    40    1
    14    39    41   am
    15    39    42    2
    16    41    43    1
    17    28    25    1
    18    34    37    1
    19    35    38    1
    20    45    46    1
    21    15    16   ar
    22    15    20   ar
    23    15     6    1
    24    16    17   ar
    25    16    21    2
    26    17    18   ar
    27    17    23    1
    28    18    19   ar
    29    18    22    2
    30    19    20   ar
    31     6     7    1
    32     6    11    1
    33     7     8    1
    34     7     9    1
    35     8    13    1
    36     9    10    1
    37     9    12    1
    38    10    11    1
    39    10     5    1
    40    12    14    1
    41     5     4    1
    42     4     1    1
    43     1     2    2
    44     1     3    1
    45     1    24    1
    46    24    25    1
    47    25    26    2
    48    25    27    1
@<TRIPOS>MOLECULE
UD1
 46 48 0 0 0
SMALL
GASTEIGER

@<TRIPOS>ATOM
      1 P          22.8910   71.5173   -2.8275 P.3     1  UNL1        0.2189
      2 O          24.2141   71.0014   -3.2424 O.2     1  UNL1       -0.5170
      3 O          22.3922   72.6261   -3.8831 O.3     1  UNL1       -0.4371
      4 O          23.0097   72.1837   -1.3665 O.3     1  UNL1       -0.3112
      5 C          23.4475   71.1555   -0.4768 C.3     1  UNL1        0.1811
      6 C          23.5433   73.1355    2.5227 C.3     1  UNL1        0.2383
      7 C          22.3723   73.7311    1.7017 C.3     1  UNL1        0.1895
      8 O          21.3623   74.2601    2.5616 O.3     1  UNL1       -0.3779
      9 C          21.8497   72.4901    0.9324 C.3     1  UNL1        0.1713
     10 C          23.0376   71.5088    0.9537 C.3     1  UNL1        0.1764
     11 O          24.1256   72.1659    1.6259 O.3     1  UNL1       -0.3308
     12 O          20.7167   71.9288    1.5988 O.3     1  UNL1       -0.3794
     13 H          20.6659   74.6140    1.9912 H       1  UNL1        0.2106
     14 H          20.0308   72.6097    1.6051 H       1  UNL1        0.2105
     15 N          24.5177   74.1722    2.8652 N.ar    1  UNL1       -0.2551
     16 C          25.1398   74.8514    1.8859 C.ar    1  UNL1        0.3323
     17 N          26.0376   75.8130    2.1716 N.ar    1  UNL1       -0.2743
     18 C          26.3355   76.1052    3.4537 C.ar    1  UNL1        0.2626
     19 C          25.6923   75.3937    4.4944 C.ar    1  UNL1        0.0795
     20 C          24.7920   74.4379    4.1797 C.ar    1  UNL1        0.0869
     21 O          24.8818   74.5994    0.7246 O.2     1  UNL1       -0.2464
     22 O          27.1506   76.9710    3.7132 O.2     1  UNL1       -0.2670
     23 H          26.4734   76.2961    1.4527 H       1  UNL1        0.1734
     24 O          21.8333   70.3058   -2.7802 O.3     1  UNL1       -0.2703
     25 P          20.3673   70.9690   -2.7638 P.3     1  UNL1        0.2208
     26 O          20.4922   72.4388   -2.6497 O.2     1  UNL1       -0.5170
     27 O          19.5353   70.4028   -1.5070 O.3     1  UNL1       -0.4371
     28 O          19.5948   70.6003   -4.1268 O.3     1  UNL1       -0.2865
     29 C          18.9383   71.7908   -4.5662 C.3     1  UNL1        0.2611
     30 C          17.4546   71.4952   -4.7924 C.3     1  UNL1        0.1582
     31 C          17.3188   70.3843   -5.8398 C.3     1  UNL1        0.1625
     32 C          18.1005   70.7938   -7.0926 C.3     1  UNL1        0.1686
     33 C          19.5366   71.1393   -6.6932 C.3     1  UNL1        0.1760
     34 O          15.9405   70.2028   -6.1694 O.3     1  UNL1       -0.3801
     35 O          18.1097   69.7113   -8.0252 O.3     1  UNL1       -0.3794
     36 O          19.5326   72.2382   -5.7827 O.3     1  UNL1       -0.3263
     37 H          15.9016   69.4968   -6.8292 H       1  UNL1        0.2105
     38 H          18.6115   70.0108   -8.7965 H       1  UNL1        0.2105
     39 C          16.7028   69.7469   -3.2716 C.2     1  UNL1        0.2231
     40 C          16.0741   69.2999   -1.9766 C.3     1  UNL1        0.0946
     41 N          16.8443   71.0604   -3.5343 N.am    1  UNL1       -0.2994
     42 O          17.0809   68.9240   -4.0778 O.2     1  UNL1       -0.2751
     43 H          16.5416   71.7192   -2.8893 H       1  UNL1        0.1496
     44 C          20.3348   71.5184   -7.9423 C.3     1  UNL1        0.1693
     45 O          20.8628   72.8374   -7.7886 O.3     1  UNL1       -0.3794
     46 H          21.3570   73.0367   -8.5952 H       1  UNL1        0.2105
@<TRIPOS>BOND
     1    29    30    1
     2    29    28    1
     3    29    36    1
     4    30    31    1
     5    30    41    1
     6    31    32    1
     7    31    34    1
     8    32    33    1
     9    32    35    1
    10    33    44    1
    11    33    36    1
    12    44    45    1
    13    39    40    1
    14    39    41   am
    15    39    42    2
    16    41    43    1
    17    28    25    1
    18    34    37    1
    19    35    38    1
    20    45    46    1
    21    15    16   ar
    22    15    20   ar
    23    15     6    1
    24    16    17   ar
    25    16    21    2
    26    17    18   ar
    27    17    23    1
    28    18    19   ar
    29    18    22    2
    30    19    20   ar
    31     6     7    1
    32     6    11    1
    33     7     8    1
    34     7     9    1
    35     8    13    1
    36     9    10    1
    37     9    12    1
    38    10    11    1
    39    10     5    1
    40    12    14    1
    41     5     4    1
    42     4     1    1
    43     1     2    2
    44     1     3    1
    45     1    24    1
    46    24    25    1
    47    25    26    2
    48    25    27    1
@<TRIPOS>MOLECULE
UD1
 46 48 0 0 0
SMALL
GASTEIGER

@<TRIPOS>ATOM
      1 P          20.6388   72.0006   -2.0656 P.3     1  UNL1        0.2189
      2 O          20.7377   72.9057   -3.2317 O.2     1  UNL1       -0.5170
      3 O          21.4622   70.6494   -2.3636 O.3     1  UNL1       -0.4371
      4 O          19.0929   71.6379   -1.7981 O.3     1  UNL1       -0.3112
      5 C          18.8366   70.4010   -2.4651 C.3     1  UNL1        0.1811
      6 C          17.1187   70.4476   -5.6232 C.3     1  UNL1        0.2383
      7 C          16.9719   68.9887   -5.1230 C.3     1  UNL1        0.1895
      8 O          15.7506   68.4104   -5.5848 O.3     1  UNL1       -0.3779
      9 C          16.9493   69.1731   -3.5833 C.3     1  UNL1        0.1713
     10 C          17.6062   70.5492   -3.3614 C.3     1  UNL1        0.1764
     11 O          17.9980   71.0511   -4.6505 O.3     1  UNL1       -0.3308
     12 O          15.6048   69.1694   -3.0985 O.3     1  UNL1       -0.3794
     13 H          15.7208   67.5069   -5.2409 H       1  UNL1        0.2106
     14 H          15.2306   68.3061   -3.3198 H       1  UNL1        0.2105
     15 N          17.7223   70.4815   -6.9559 N.ar    1  UNL1       -0.2551
     16 C          16.9349   70.4464   -8.0450 C.ar    1  UNL1        0.3323
     17 N          17.4625   70.4802   -9.2831 N.ar    1  UNL1       -0.2743
     18 C          18.7990   70.5409   -9.4507 C.ar    1  UNL1        0.2626
     19 C          19.6398   70.5724   -8.3128 C.ar    1  UNL1        0.0795
     20 C          19.0839   70.5427   -7.0826 C.ar    1  UNL1        0.0869
     21 O          15.7277   70.3917   -7.9101 O.2     1  UNL1       -0.2464
     22 O          19.2773   70.5667  -10.5696 O.2     1  UNL1       -0.2670
     23 H          16.8794   70.4589  -10.0575 H       1  UNL1        0.1734
     24 O          21.2514   72.7283   -0.7679 O.3     1  UNL1       -0.2703
     25 P          22.0699   71.6096    0.0494 P.3     1  UNL1        0.2208
     26 O          23.1604   71.0791   -0.7981 O.2     1  UNL1       -0.5170
     27 O          21.0776   70.4099    0.4591 O.3     1  UNL1       -0.4371
     28 O          22.6949   72.2652    1.3798 O.3     1  UNL1       -0.2865
     29 C          22.3375   73.6484    1.3676 C.3     1  UNL1        0.2611
     30 C          23.5797   74.4885    1.0657 C.3     1  UNL1        0.1582
     31 C          24.6427   74.2137    2.1354 C.3     1  UNL1        0.1625
     32 C          24.0194   74.4442    3.5162 C.3     1  UNL1        0.1686
     33 C          22.7454   73.6050    3.6343 C.3     1  UNL1        0.1760
     34 O          25.7478   75.1004    1.9512 O.3     1  UNL1       -0.3801
     35 O          24.9468   74.0531    4.5305 O.3     1  UNL1       -0.3794
     36 O          21.8062   74.0118    2.6400 O.3     1  UNL1       -0.3263
     37 H          26.3907   74.8930    2.6432 H       1  UNL1        0.2105
     38 H          24.5148   74.2136    5.3814 H       1  UNL1        0.2105
     39 C          23.7863   74.8688   -1.3315 C.2     1  UNL1        0.2231
     40 C          24.3279   74.4977   -2.6885 C.3     1  UNL1        0.0946
     41 N          24.1060   74.1286   -0.2526 N.am    1  UNL1       -0.2994
     42 O          23.0620   75.8337   -1.2110 O.2     1  UNL1       -0.2751
     43 H          24.6854   73.3563   -0.3488 H       1  UNL1        0.1496
     44 C          22.1326   73.8030    5.0223 C.3     1  UNL1        0.1693
     45 O          22.4045   72.6570    5.8314 O.3     1  UNL1       -0.3794
     46 H          22.0020   72.8221    6.6948 H       1  UNL1        0.2105
@<TRIPOS>BOND
     1    29    30    1
     2    29    28    1
     3    29    36    1
     4    30    31    1
     5    30    41    1
     6    31    32    1
     7    31    34    1
     8    32    33    1
     9    32    35    1
    10    33    44    1
    11    33    36    1
    12    44    45    1
    13    39    40    1
    14    39    41   am
    15    39    42    2
    16    41    43    1
    17    28    25    1
    18    34    37    1
    19    35    38    1
    20    45    46    1
    21    15    16   ar
    22    15    20   ar
    23    15     6    1
    24    16    17   ar
    25    16    21    2
    26    17    18   ar
    27    17    23    1
    28    18    19   ar
    29    18    22    2
    30    19    20   ar
    31     6     7    1
    32     6    11    1
    33     7     8    1
    34     7     9    1
    35     8    13    1
    36     9    10    1
    37     9    12    1
    38    10    11    1
    39    10     5    1
    40    12    14    1
    41     5     4    1
    42     4     1    1
    43     1     2    2
    44     1     3    1
    45     1    24    1
    46    24    25    1
    47    25    26    2
    48    25    27    1
@<TRIPOS>MOLECULE
UD1
 46 48 0 0 0
SMALL
GASTEIGER

@<TRIPOS>ATOM
      1 P          23.4650   72.1196   -3.2907 P.3     1  UNL1        0.2189
      2 O          24.0886   70.8128   -2.9870 O.2     1  UNL1       -0.5170
      3 O          24.3611   72.9028   -4.3752 O.3     1  UNL1       -0.4371
      4 O          23.3697   72.9944   -1.9423 O.3     1  UNL1       -0.3112
      5 C          22.0046   72.9618   -1.5233 C.3     1  UNL1        0.1811
      6 C          23.2744   72.1046    1.7294 C.3     1  UNL1        0.2383
      7 C          22.5521   73.4590    1.9393 C.3     1  UNL1        0.1895
      8 O          22.0146   73.5526    3.2589 O.3     1  UNL1       -0.3779
      9 C          21.4182   73.3904    0.8835 C.3     1  UNL1        0.1713
     10 C          21.9127   72.3395   -0.1292 C.3     1  UNL1        0.1764
     11 O          23.2152   71.9082    0.3006 O.3     1  UNL1       -0.3308
     12 O          20.1938   72.9722    1.4907 O.3     1  UNL1       -0.3794
     13 H          21.5810   74.4147    3.3243 H       1  UNL1        0.2106
     14 H          19.9693   73.6383    2.1540 H       1  UNL1        0.2105
     15 N          24.6636   72.1811    2.1828 N.ar    1  UNL1       -0.2551
     16 C          25.3902   71.0557    2.2968 C.ar    1  UNL1        0.3323
     17 N          26.6715   71.0965    2.7077 N.ar    1  UNL1       -0.2743
     18 C          27.2470   72.2746    3.0222 C.ar    1  UNL1        0.2626
     19 C          26.4918   73.4664    2.9123 C.ar    1  UNL1        0.0795
     20 C          25.2102   73.3972    2.4926 C.ar    1  UNL1        0.0869
     21 O          24.8852   69.9855    2.0168 O.2     1  UNL1       -0.2464
     22 O          28.4040   72.3122    3.3983 O.2     1  UNL1       -0.2670
     23 H          27.1822   70.2755    2.7796 H       1  UNL1        0.1734
     24 O          21.9876   71.8845   -3.8831 O.3     1  UNL1       -0.2703
     25 P          21.8672   72.7926   -5.2060 P.3     1  UNL1        0.2208
     26 O          22.8613   72.3428   -6.2051 O.2     1  UNL1       -0.5170
     27 O          22.1465   74.3325   -4.8280 O.3     1  UNL1       -0.4371
     28 O          20.3867   72.6527   -5.8217 O.3     1  UNL1       -0.2865
     29 C          19.4762   73.1074   -4.8190 C.3     1  UNL1        0.2611
     30 C          18.2144   72.2434   -4.8534 C.3     1  UNL1        0.1582
     31 C          17.5789   72.3395   -6.2450 C.3     1  UNL1        0.1625
     32 C          17.3661   73.8183   -6.5856 C.3     1  UNL1        0.1686
     33 C          18.6929   74.5630   -6.4234 C.3     1  UNL1        0.1760
     34 O          16.3226   71.6589   -6.2458 O.3     1  UNL1       -0.3801
     35 O          16.9114   73.9373   -7.9349 O.3     1  UNL1       -0.3794
     36 O          19.1361   74.4693   -5.0702 O.3     1  UNL1       -0.3263
     37 H          15.9593   71.7440   -7.1380 H       1  UNL1        0.2105
     38 H          16.7913   74.8820   -8.1073 H       1  UNL1        0.2105
     39 C          17.7727   70.1013   -3.7808 C.2     1  UNL1        0.2231
     40 C          18.1358   68.6677   -3.4889 C.3     1  UNL1        0.0946
     41 N          18.5664   70.8506   -4.5700 N.am    1  UNL1       -0.2994
     42 O          16.7660   70.5807   -3.3045 O.2     1  UNL1       -0.2751
     43 H          19.3723   70.4672   -4.9510 H       1  UNL1        0.1496
     44 C          18.4985   76.0351   -6.7927 C.3     1  UNL1        0.1693
     45 O          17.1858   76.4526   -6.4125 O.3     1  UNL1       -0.3794
     46 H          17.1048   77.3830   -6.6624 H       1  UNL1        0.2105
@<TRIPOS>BOND
     1    29    30    1
     2    29    28    1
     3    29    36    1
     4    30    31    1
     5    30    41    1
     6    31    32    1
     7    31    34    1
     8    32    33    1
     9    32    35    1
    10    33    44    1
    11    33    36    1
    12    44    45    1
    13    39    40    1
    14    39    41   am
    15    39    42    2
    16    41    43    1
    17    28    25    1
    18    34    37    1
    19    35    38    1
    20    45    46    1
    21    15    16   ar
    22    15    20   ar
    23    15     6    1
    24    16    17   ar
    25    16    21    2
    26    17    18   ar
    27    17    23    1
    28    18    19   ar
    29    18    22    2
    30    19    20   ar
    31     6     7    1
    32     6    11    1
    33     7     8    1
    34     7     9    1
    35     8    13    1
    36     9    10    1
    37     9    12    1
    38    10    11    1
    39    10     5    1
    40    12    14    1
    41     5     4    1
    42     4     1    1
    43     1     2    2
    44     1     3    1
    45     1    24    1
    46    24    25    1
    47    25    26    2
    48    25    27    1
@<TRIPOS>MOLECULE
UD1
 46 48 0 0 0
SMALL
GASTEIGER

@<TRIPOS>ATOM
      1 P          21.0780   71.2807   -0.6512 P.3     1  UNL1        0.2189
      2 O          20.3283   72.5022   -0.2844 O.2     1  UNL1       -0.5170
      3 O          21.1285   70.2825    0.6112 O.3     1  UNL1       -0.4371
      4 O          22.5782   71.6803   -1.0783 O.3     1  UNL1       -0.3112
      5 C          23.4462   71.1757   -0.0623 C.3     1  UNL1        0.1811
      6 C          25.0762   73.0616    2.5288 C.3     1  UNL1        0.2383
      7 C          25.0398   74.0222    1.3138 C.3     1  UNL1        0.1895
      8 O          24.9539   75.3824    1.7401 O.3     1  UNL1       -0.3779
      9 C          23.7384   73.5853    0.5922 C.3     1  UNL1        0.1713
     10 C          23.4845   72.1566    1.1106 C.3     1  UNL1        0.1764
     11 O          24.5685   71.8209    1.9935 O.3     1  UNL1       -0.3308
     12 O          22.6569   74.4513    0.9428 O.3     1  UNL1       -0.3794
     13 H          24.9355   75.9260    0.9403 H       1  UNL1        0.2106
     14 H          22.9015   75.3379    0.6459 H       1  UNL1        0.2105
     15 N          26.4457   72.8917    3.0156 N.ar    1  UNL1       -0.2551
     16 C          27.1084   71.7512    2.7560 C.ar    1  UNL1        0.3323
     17 N          28.3703   71.5690    3.1880 N.ar    1  UNL1       -0.2743
     18 C          28.9900   72.5312    3.9008 C.ar    1  UNL1        0.2626
     19 C          28.3019   73.7344    4.1864 C.ar    1  UNL1        0.0795
     20 C          27.0387   73.8930    3.7364 C.ar    1  UNL1        0.0869
     21 O          26.5630   70.8741    2.1142 O.2     1  UNL1       -0.2464
     22 O          30.1293   72.3657    4.2960 O.2     1  UNL1       -0.2670
     23 H          28.8350   70.7420    2.9875 H       1  UNL1        0.1734
     24 O          20.3455   70.5514   -1.8842 O.3     1  UNL1       -0.2703
     25 P          19.7817   71.7139   -2.8435 P.3     1  UNL1        0.2208
     26 O          20.8804   72.6411   -3.1927 O.2     1  UNL1       -0.5170
     27 O          18.6190   72.5242   -2.0795 O.3     1  UNL1       -0.4371
     28 O          19.1841   71.0598   -4.1872 O.3     1  UNL1       -0.2865
     29 C          18.4493   72.0862   -4.8564 C.3     1  UNL1        0.2611
     30 C          17.0590   71.5592   -5.2162 C.3     1  UNL1        0.1582
     31 C          17.2074   70.3263   -6.1148 C.3     1  UNL1        0.1625
     32 C          18.0945   70.6941   -7.3089 C.3     1  UNL1        0.1686
     33 C          19.4081   71.2836   -6.7910 C.3     1  UNL1        0.1760
     34 O          15.9204   69.9144   -6.5790 O.3     1  UNL1       -0.3801
     35 O          18.3661   69.5229   -8.0811 O.3     1  UNL1       -0.3794
     36 O          19.1425   72.4690   -6.0422 O.3     1  UNL1       -0.3263
     37 H          16.0605   69.1382   -7.1387 H       1  UNL1        0.2105
     38 H          18.9266   69.7989   -8.8202 H       1  UNL1        0.2105
     39 C          16.3379   69.9116   -3.5731 C.2     1  UNL1        0.2231
     40 C          15.6000   69.5334   -2.3142 C.3     1  UNL1        0.0946
     41 N          16.3428   71.1914   -3.9930 N.am    1  UNL1       -0.2994
     42 O          16.9268   69.0635   -4.2087 O.2     1  UNL1       -0.2751
     43 H          15.8714   71.8703   -3.4847 H       1  UNL1        0.1496
     44 C          20.3148   71.6243   -7.9755 C.3     1  UNL1        0.1693
     45 O          20.9043   72.9098   -7.7703 O.3     1  UNL1       -0.3794
     46 H          21.4661   73.0856   -8.5372 H       1  UNL1        0.2105
@<TRIPOS>BOND
     1    29    30    1
     2    29    28    1
     3    29    36    1
     4    30    31    1
     5    30    41    1
     6    31    32    1
     7    31    34    1
     8    32    33    1
     9    32    35    1
    10    33    44    1
    11    33    36    1
    12    44    45    1
    13    39    40    1
    14    39    41   am
    15    39    42    2
    16    41    43    1
    17    28    25    1
    18    34    37    1
    19    35    38    1
    20    45    46    1
    21    15    16   ar
    22    15    20   ar
    23    15     6    1
    24    16    17   ar
    25    16    21    2
    26    17    18   ar
    27    17    23    1
    28    18    19   ar
    29    18    22    2
    30    19    20   ar
    31     6     7    1
    32     6    11    1
    33     7     8    1
    34     7     9    1
    35     8    13    1
    36     9    10    1
    37     9    12    1
    38    10    11    1
    39    10     5    1
    40    12    14    1
    41     5     4    1
    42     4     1    1
    43     1     2    2
    44     1     3    1
    45     1    24    1
    46    24    25    1
    47    25    26    2
    48    25    27    1
@<TRIPOS>MOLECULE
UD1
 46 48 0 0 0
SMALL
GASTEIGER

@<TRIPOS>ATOM
      1 P          17.0995   69.2771   -2.7101 P.3     1  UNL1        0.2189
      2 O          16.3359   70.0198   -3.7368 O.2     1  UNL1       -0.5170
      3 O          17.9274   68.0881   -3.4126 O.3     1  UNL1       -0.4371
      4 O          16.0805   68.6548   -1.6298 O.3     1  UNL1       -0.3112
      5 C          15.2754   69.7332   -1.1511 C.3     1  UNL1        0.1811
      6 C          12.6855   68.1549    0.7799 C.3     1  UNL1        0.2383
      7 C          12.5586   69.6614    1.1183 C.3     1  UNL1        0.1895
      8 O          11.2046   70.0068    1.4126 O.3     1  UNL1       -0.3779
      9 C          13.0267   70.3317   -0.1996 C.3     1  UNL1        0.1713
     10 C          13.8499   69.2365   -0.9048 C.3     1  UNL1        0.1764
     11 O          13.8746   68.0912   -0.0360 O.3     1  UNL1       -0.3308
     12 O          11.9016   70.7112   -0.9951 O.3     1  UNL1       -0.3794
     13 H          11.1943   70.9527    1.6143 H       1  UNL1        0.2106
     14 H          11.3959   71.3510   -0.4764 H       1  UNL1        0.2105
     15 N          12.8522   67.3612    1.9980 N.ar    1  UNL1       -0.2551
     16 C          12.5623   66.0485    1.9828 C.ar    1  UNL1        0.3323
     17 N          12.7099   65.2933    3.0873 N.ar    1  UNL1       -0.2743
     18 C          13.1451   65.8479    4.2366 C.ar    1  UNL1        0.2626
     19 C          13.4483   67.2299    4.2682 C.ar    1  UNL1        0.0795
     20 C          13.2963   67.9630    3.1444 C.ar    1  UNL1        0.0869
     21 O          12.1688   65.5337    0.9538 O.2     1  UNL1       -0.2464
     22 O          13.2744   65.1670    5.2371 O.2     1  UNL1       -0.2670
     23 H          12.5006   64.3470    3.0570 H       1  UNL1        0.1734
     24 O          18.1193   70.2784   -1.9710 O.3     1  UNL1       -0.2703
     25 P          19.3488   70.5188   -2.9809 P.3     1  UNL1        0.2208
     26 O          19.9400   69.2158   -3.3570 O.2     1  UNL1       -0.5170
     27 O          20.4665   71.4265   -2.2603 O.3     1  UNL1       -0.4371
     28 O          18.8202   71.2698   -4.3027 O.3     1  UNL1       -0.2865
     29 C          19.5987   70.7810   -5.3964 C.3     1  UNL1        0.2611
     30 C          20.3981   71.9355   -6.0031 C.3     1  UNL1        0.1582
     31 C          19.4273   73.0243   -6.4739 C.3     1  UNL1        0.1625
     32 C          18.3914   72.3875   -7.4064 C.3     1  UNL1        0.1686
     33 C          17.7412   71.2006   -6.6925 C.3     1  UNL1        0.1760
     34 O          20.1488   74.0384   -7.1756 O.3     1  UNL1       -0.3801
     35 O          17.3917   73.3523   -7.7401 O.3     1  UNL1       -0.3794
     36 O          18.7329   70.2225   -6.3822 O.3     1  UNL1       -0.3263
     37 H          19.5013   74.7011   -7.4526 H       1  UNL1        0.2105
     38 H          16.7611   72.9104   -8.3263 H       1  UNL1        0.2105
     39 C          22.5935   72.7236   -5.3006 C.2     1  UNL1        0.2231
     40 C          23.5250   73.2923   -4.2608 C.3     1  UNL1        0.0946
     41 N          21.3032   72.4885   -4.9935 N.am    1  UNL1       -0.2994
     42 O          23.0057   72.4768   -6.4139 O.2     1  UNL1       -0.2751
     43 H          20.9732   72.6856   -4.1026 H       1  UNL1        0.1496
     44 C          16.6816   70.5772   -7.6035 C.3     1  UNL1        0.1693
     45 O          15.7224   69.8766   -6.8091 O.3     1  UNL1       -0.3794
     46 H          15.0748   69.4998   -7.4201 H       1  UNL1        0.2105
@<TRIPOS>BOND
     1    29    30    1
     2    29    28    1
     3    29    36    1
     4    30    31    1
     5    30    41    1
     6    31    32    1
     7    31    34    1
     8    32    33    1
     9    32    35    1
    10    33    44    1
    11    33    36    1
    12    44    45    1
    13    39    40    1
    14    39    41   am
    15    39    42    2
    16    41    43    1
    17    28    25    1
    18    34    37    1
    19    35    38    1
    20    45    46    1
    21    15    16   ar
    22    15    20   ar
    23    15     6    1
    24    16    17   ar
    25    16    21    2
    26    17    18   ar
    27    17    23    1
    28    18    19   ar
    29    18    22    2
    30    19    20   ar
    31     6     7    1
    32     6    11    1
    33     7     8    1
    34     7     9    1
    35     8    13    1
    36     9    10    1
    37     9    12    1
    38    10    11    1
    39    10     5    1
    40    12    14    1
    41     5     4    1
    42     4     1    1
    43     1     2    2
    44     1     3    1
    45     1    24    1
    46    24    25    1
    47    25    26    2
    48    25    27    1
@<TRIPOS>MOLECULE
UD1
 46 48 0 0 0
SMALL
GASTEIGER

@<TRIPOS>ATOM
      1 P          22.7757   72.5507   -3.3419 P.3     1  UNL1        0.2189
      2 O          22.8047   73.6736   -2.3791 O.2     1  UNL1       -0.5170
      3 O          24.2522   72.3191   -3.9410 O.3     1  UNL1       -0.4371
      4 O          21.7595   72.8990   -4.5414 O.3     1  UNL1       -0.3112
      5 C          22.3652   72.4290   -5.7466 C.3     1  UNL1        0.1811
      6 C          19.2635   70.6555   -6.1483 C.3     1  UNL1        0.2383
      7 C          19.0457   71.9933   -6.8987 C.3     1  UNL1        0.1895
      8 O          18.1465   71.8239   -7.9950 O.3     1  UNL1       -0.3779
      9 C          20.4757   72.3213   -7.4014 C.3     1  UNL1        0.1713
     10 C          21.3950   71.4995   -6.4773 C.3     1  UNL1        0.1764
     11 O          20.5550   70.8240   -5.5259 O.3     1  UNL1       -0.3308
     12 O          20.6326   71.9160   -8.7629 O.3     1  UNL1       -0.3794
     13 H          18.0538   72.6890   -8.4176 H       1  UNL1        0.2106
     14 H          19.9913   72.4210   -9.2803 H       1  UNL1        0.2105
     15 N          18.2256   70.4524   -5.1368 N.ar    1  UNL1       -0.2551
     16 C          17.1033   69.7858   -5.4584 C.ar    1  UNL1        0.3323
     17 N          16.1338   69.5807   -4.5473 N.ar    1  UNL1       -0.2743
     18 C          16.2706   70.0523   -3.2916 C.ar    1  UNL1        0.2626
     19 C          17.4445   70.7610   -2.9412 C.ar    1  UNL1        0.0795
     20 C          18.4035   70.9478   -3.8732 C.ar    1  UNL1        0.0869
     21 O          16.9652   69.3543   -6.5868 O.2     1  UNL1       -0.2464
     22 O          15.3926   69.8717   -2.4683 O.2     1  UNL1       -0.2670
     23 H          15.3329   69.0937   -4.7953 H       1  UNL1        0.1734
     24 O          22.2837   71.2143   -2.5931 O.3     1  UNL1       -0.2703
     25 P          21.4198   71.6860   -1.3200 P.3     1  UNL1        0.2208
     26 O          20.6867   70.5271   -0.7648 O.2     1  UNL1       -0.5170
     27 O          20.3685   72.8179   -1.7736 O.3     1  UNL1       -0.4371
     28 O          22.4025   72.2877   -0.1963 O.3     1  UNL1       -0.2865
     29 C          21.9745   71.7533    1.0577 C.3     1  UNL1        0.2611
     30 C          21.5672   72.9012    1.9832 C.3     1  UNL1        0.1582
     31 C          22.7642   73.8393    2.1750 C.3     1  UNL1        0.1625
     32 C          23.9635   73.0125    2.6505 C.3     1  UNL1        0.1686
     33 C          24.1919   71.8579    1.6728 C.3     1  UNL1        0.1760
     34 O          22.4438   74.8306    3.1528 O.3     1  UNL1       -0.3801
     35 O          25.1273   73.8404    2.6948 O.3     1  UNL1       -0.3794
     36 O          23.0418   71.0135    1.6467 O.3     1  UNL1       -0.3263
     37 H          23.2223   75.3975    3.2413 H       1  UNL1        0.2105
     38 H          25.8569   73.2814    2.9975 H       1  UNL1        0.2105
     39 C          19.4467   74.0873    2.1595 C.2     1  UNL1        0.2231
     40 C          18.3013   74.8491    1.5430 C.3     1  UNL1        0.0946
     41 N          20.4545   73.6417    1.3849 N.am    1  UNL1       -0.2994
     42 O          19.4608   73.8748    3.3531 O.2     1  UNL1       -0.2751
     43 H          20.4434   73.8115    0.4296 H       1  UNL1        0.1496
     44 C          25.4081   71.0447    2.1210 C.3     1  UNL1        0.1693
     45 O          24.9695   69.8601    2.7892 O.3     1  UNL1       -0.3794
     46 H          25.7643   69.3780    3.0547 H       1  UNL1        0.2105
@<TRIPOS>BOND
     1    29    30    1
     2    29    28    1
     3    29    36    1
     4    30    31    1
     5    30    41    1
     6    31    32    1
     7    31    34    1
     8    32    33    1
     9    32    35    1
    10    33    44    1
    11    33    36    1
    12    44    45    1
    13    39    40    1
    14    39    41   am
    15    39    42    2
    16    41    43    1
    17    28    25    1
    18    34    37    1
    19    35    38    1
    20    45    46    1
    21    15    16   ar
    22    15    20   ar
    23    15     6    1
    24    16    17   ar
    25    16    21    2
    26    17    18   ar
    27    17    23    1
    28    18    19   ar
    29    18    22    2
    30    19    20   ar
    31     6     7    1
    32     6    11    1
    33     7     8    1
    34     7     9    1
    35     8    13    1
    36     9    10    1
    37     9    12    1
    38    10    11    1
    39    10     5    1
    40    12    14    1
    41     5     4    1
    42     4     1    1
    43     1     2    2
    44     1     3    1
    45     1    24    1
    46    24    25    1
    47    25    26    2
    48    25    27    1
@<TRIPOS>MOLECULE
UD1
 46 48 0 0 0
SMALL
GASTEIGER

@<TRIPOS>ATOM
      1 P          21.5923   71.4613   -0.6244 P.3     1  UNL1        0.2189
      2 O          20.4240   72.2862   -1.0030 O.2     1  UNL1       -0.5170
      3 O          21.1686   70.4332    0.5401 O.3     1  UNL1       -0.4371
      4 O          22.7734   72.4172   -0.0914 O.3     1  UNL1       -0.3112
      5 C          23.3792   71.7485    1.0159 C.3     1  UNL1        0.1811
      6 C          25.7074   73.3868    3.2120 C.3     1  UNL1        0.2383
      7 C          25.7287   74.2389    1.9182 C.3     1  UNL1        0.1895
      8 O          26.0025   75.6090    2.2131 O.3     1  UNL1       -0.3779
      9 C          24.2809   74.0651    1.3901 C.3     1  UNL1        0.1713
     10 C          23.7853   72.7760    2.0735 C.3     1  UNL1        0.1764
     11 O          24.8723   72.2626    2.8621 O.3     1  UNL1       -0.3308
     12 O          23.4730   75.1819    1.7682 O.3     1  UNL1       -0.3794
     13 H          26.0023   76.0825    1.3697 H       1  UNL1        0.2106
     14 H          23.8679   75.9634    1.3591 H       1  UNL1        0.2105
     15 N          27.0561   72.9390    3.5611 N.ar    1  UNL1       -0.2551
     16 C          27.5417   71.8059    3.0248 C.ar    1  UNL1        0.3323
     17 N          28.7803   71.3721    3.3250 N.ar    1  UNL1       -0.2743
     18 C          29.5548   72.0680    4.1817 C.ar    1  UNL1        0.2626
     19 C          29.0539   73.2594    4.7581 C.ar    1  UNL1        0.0795
     20 C          27.8101   73.6744    4.4355 C.ar    1  UNL1        0.0869
     21 O          26.8552   71.1673    2.2505 O.2     1  UNL1       -0.2464
     22 O          30.6730   71.6742    4.4575 O.2     1  UNL1       -0.2670
     23 H          29.1162   70.5551    2.9252 H       1  UNL1        0.1734
     24 O          22.1065   70.6379   -1.9076 O.3     1  UNL1       -0.2703
     25 P          22.7589   71.7087   -2.9161 P.3     1  UNL1        0.2208
     26 O          24.1592   71.3269   -3.2025 O.2     1  UNL1       -0.5170
     27 O          22.7292   73.1701   -2.2412 O.3     1  UNL1       -0.4371
     28 O          21.9188   71.7360   -4.2887 O.3     1  UNL1       -0.2865
     29 C          21.2014   72.9713   -4.3111 C.3     1  UNL1        0.2611
     30 C          19.7439   72.7021   -4.6894 C.3     1  UNL1        0.1582
     31 C          19.6996   72.0257   -6.0642 C.3     1  UNL1        0.1625
     32 C          20.4832   72.8874   -7.0600 C.3     1  UNL1        0.1686
     33 C          21.8862   73.1401   -6.5041 C.3     1  UNL1        0.1760
     34 O          18.3426   71.9046   -6.4948 O.3     1  UNL1       -0.3801
     35 O          20.5792   72.2042   -8.3112 O.3     1  UNL1       -0.3794
     36 O          21.7949   73.8467   -5.2676 O.3     1  UNL1       -0.3263
     37 H          18.3617   71.4749   -7.3610 H       1  UNL1        0.2105
     38 H          21.0793   72.7801   -8.9067 H       1  UNL1        0.2105
     39 C          19.1594   70.4873   -3.8605 C.2     1  UNL1        0.2231
     40 C          18.5297   69.5829   -2.8320 C.3     1  UNL1        0.0946
     41 N          19.1327   71.8231   -3.6903 N.am    1  UNL1       -0.2994
     42 O          19.6897   70.0123   -4.8420 O.2     1  UNL1       -0.2751
     43 H          18.7082   72.2035   -2.9050 H       1  UNL1        0.1496
     44 C          22.6881   73.9730   -7.5063 C.3     1  UNL1        0.1693
     45 O          23.2881   73.1082   -8.4728 O.3     1  UNL1       -0.3794
     46 H          23.7828   73.6714   -9.0833 H       1  UNL1        0.2105
@<TRIPOS>BOND
     1    29    30    1
     2    29    28    1
     3    29    36    1
     4    30    31    1
     5    30    41    1
     6    31    32    1
     7    31    34    1
     8    32    33    1
     9    32    35    1
    10    33    44    1
    11    33    36    1
    12    44    45    1
    13    39    40    1
    14    39    41   am
    15    39    42    2
    16    41    43    1
    17    28    25    1
    18    34    37    1
    19    35    38    1
    20    45    46    1
    21    15    16   ar
    22    15    20   ar
    23    15     6    1
    24    16    17   ar
    25    16    21    2
    26    17    18   ar
    27    17    23    1
    28    18    19   ar
    29    18    22    2
    30    19    20   ar
    31     6     7    1
    32     6    11    1
    33     7     8    1
    34     7     9    1
    35     8    13    1
    36     9    10    1
    37     9    12    1
    38    10    11    1
    39    10     5    1
    40    12    14    1
    41     5     4    1
    42     4     1    1
    43     1     2    2
    44     1     3    1
    45     1    24    1
    46    24    25    1
    47    25    26    2
    48    25    27    1
@<TRIPOS>MOLECULE
UD1
 46 48 0 0 0
SMALL
GASTEIGER

@<TRIPOS>ATOM
      1 P          21.9891   72.4625   -6.3450 P.3     1  UNL1        0.2189
      2 O          20.7937   73.1912   -5.8666 O.2     1  UNL1       -0.5170
      3 O          22.8197   73.3998   -7.3570 O.3     1  UNL1       -0.4371
      4 O          21.5295   71.1228   -7.1109 O.3     1  UNL1       -0.3112
      5 C          20.5915   71.5197   -8.1124 C.3     1  UNL1        0.1811
      6 C          17.4708   70.1989   -6.9108 C.3     1  UNL1        0.2383
      7 C          17.0667   71.1970   -8.0247 C.3     1  UNL1        0.1895
      8 O          15.8626   70.7822   -8.6706 O.3     1  UNL1       -0.3779
      9 C          18.2736   71.1087   -8.9946 C.3     1  UNL1        0.1713
     10 C          19.4131   70.5448   -8.1240 C.3     1  UNL1        0.1764
     11 O          18.8971   70.3856   -6.7914 O.3     1  UNL1       -0.3308
     12 O          17.9802   70.2255  -10.0794 O.3     1  UNL1       -0.3794
     13 H          15.6667   71.4429   -9.3492 H       1  UNL1        0.2106
     14 H          17.2234   70.6013  -10.5486 H       1  UNL1        0.2105
     15 N          16.8002   70.5260   -5.6520 N.ar    1  UNL1       -0.2551
     16 C          16.4766   69.5427   -4.7943 C.ar    1  UNL1        0.3323
     17 N          15.8629   69.8148   -3.6274 N.ar    1  UNL1       -0.2743
     18 C          15.5529   71.0862   -3.3030 C.ar    1  UNL1        0.2626
     19 C          15.8826   72.1306   -4.1995 C.ar    1  UNL1        0.0795
     20 C          16.5027   71.8300   -5.3607 C.ar    1  UNL1        0.0869
     21 O          16.7496   68.3909   -5.0727 O.2     1  UNL1       -0.2464
     22 O          14.9938   71.3329   -2.2505 O.2     1  UNL1       -0.2670
     23 H          15.6411   69.0935   -3.0185 H       1  UNL1        0.1734
     24 O          22.9172   72.0714   -5.0901 O.3     1  UNL1       -0.2703
     25 P          23.1579   73.4231   -4.2509 P.3     1  UNL1        0.2208
     26 O          22.6143   74.5747   -5.0040 O.2     1  UNL1       -0.5170
     27 O          24.7364   73.6346   -4.0140 O.3     1  UNL1       -0.4371
     28 O          22.4134   73.3128   -2.8282 O.3     1  UNL1       -0.2865
     29 C          23.2788   72.5748   -1.9636 C.3     1  UNL1        0.2611
     30 C          22.5102   71.3942   -1.3674 C.3     1  UNL1        0.1582
     31 C          21.2972   71.9246   -0.5948 C.3     1  UNL1        0.1625
     32 C          21.7796   72.9673    0.4192 C.3     1  UNL1        0.1686
     33 C          22.6009   74.0311   -0.3124 C.3     1  UNL1        0.1760
     34 O          20.6569   70.8464    0.0900 O.3     1  UNL1       -0.3801
     35 O          20.6522   73.5803    1.0474 O.3     1  UNL1       -0.3794
     36 O          23.7428   73.4264   -0.9182 O.3     1  UNL1       -0.3263
     37 H          19.9014   71.2241    0.5612 H       1  UNL1        0.2105
     38 H          21.0004   74.2288    1.6757 H       1  UNL1        0.2105
     39 C          20.8087   70.6279   -2.9333 C.2     1  UNL1        0.2231
     40 C          20.3435   69.7175   -4.0410 C.3     1  UNL1        0.0946
     41 N          22.0580   70.5103   -2.4438 N.am    1  UNL1       -0.2994
     42 O          20.0579   71.4662   -2.4820 O.2     1  UNL1       -0.2751
     43 H          22.6590   69.8393   -2.8047 H       1  UNL1        0.1496
     44 C          23.0604   75.0951    0.6865 C.3     1  UNL1        0.1693
     45 O          23.2795   74.4888    1.9618 O.3     1  UNL1       -0.3794
     46 H          23.5667   75.1917    2.5602 H       1  UNL1        0.2105
@<TRIPOS>BOND
     1    29    30    1
     2    29    28    1
     3    29    36    1
     4    30    31    1
     5    30    41    1
     6    31    32    1
     7    31    34    1
     8    32    33    1
     9    32    35    1
    10    33    44    1
    11    33    36    1
    12    44    45    1
    13    39    40    1
    14    39    41   am
    15    39    42    2
    16    41    43    1
    17    28    25    1
    18    34    37    1
    19    35    38    1
    20    45    46    1
    21    15    16   ar
    22    15    20   ar
    23    15     6    1
    24    16    17   ar
    25    16    21    2
    26    17    18   ar
    27    17    23    1
    28    18    19   ar
    29    18    22    2
    30    19    20   ar
    31     6     7    1
    32     6    11    1
    33     7     8    1
    34     7     9    1
    35     8    13    1
    36     9    10    1
    37     9    12    1
    38    10    11    1
    39    10     5    1
    40    12    14    1
    41     5     4    1
    42     4     1    1
    43     1     2    2
    44     1     3    1
    45     1    24    1
    46    24    25    1
    47    25    26    2
    48    25    27    1
@<TRIPOS>MOLECULE
UD1
 46 48 0 0 0
SMALL
GASTEIGER

@<TRIPOS>ATOM
      1 P          22.7481   71.3386   -2.7668 P.3     1  UNL1        0.2189
      2 O          24.1309   70.8645   -2.9941 O.2     1  UNL1       -0.5170
      3 O          22.5510   72.7747   -3.4680 O.3     1  UNL1       -0.4371
      4 O          22.4810   71.4739   -1.1847 O.3     1  UNL1       -0.3112
      5 C          22.9927   72.7465   -0.7859 C.3     1  UNL1        0.1811
      6 C          24.3424   72.6445    2.5451 C.3     1  UNL1        0.2383
      7 C          23.9197   71.1830    2.2527 C.3     1  UNL1        0.1895
      8 O          24.7623   70.2594    2.9426 O.3     1  UNL1       -0.3779
      9 C          24.1291   71.0841    0.7192 C.3     1  UNL1        0.1713
     10 C          24.1071   72.5494    0.2430 C.3     1  UNL1        0.1764
     11 O          23.8592   73.3721    1.3959 O.3     1  UNL1       -0.3308
     12 O          25.3876   70.4743    0.4244 O.3     1  UNL1       -0.3794
     13 H          24.4473   69.3724    2.7198 H       1  UNL1        0.2106
     14 H          25.3609   69.5836    0.7987 H       1  UNL1        0.2105
     15 N          23.7081   73.1336    3.7698 N.ar    1  UNL1       -0.2551
     16 C          22.4697   72.7197    4.0897 C.ar    1  UNL1        0.3323
     17 N          21.8633   73.1500    5.2119 N.ar    1  UNL1       -0.2743
     18 C          22.4900   74.0163    6.0334 C.ar    1  UNL1        0.2626
     19 C          23.7916   74.4648    5.7056 C.ar    1  UNL1        0.0795
     20 C          24.3786   74.0130    4.5765 C.ar    1  UNL1        0.0869
     21 O          21.8916   71.9384    3.3589 O.2     1  UNL1       -0.2464
     22 O          21.9408   74.4097    7.0459 O.2     1  UNL1       -0.2670
     23 H          20.9717   72.8374    5.4296 H       1  UNL1        0.1734
     24 O          21.7088   70.2850   -3.3981 O.3     1  UNL1       -0.2703
     25 P          20.2344   70.8778   -3.1452 P.3     1  UNL1        0.2208
     26 O          20.3090   72.3505   -3.0247 O.2     1  UNL1       -0.5170
     27 O          19.6321   70.2587   -1.7864 O.3     1  UNL1       -0.4371
     28 O          19.2788   70.4883   -4.3804 O.3     1  UNL1       -0.2865
     29 C          18.7493   71.7108   -4.8963 C.3     1  UNL1        0.2611
     30 C          17.2663   71.5219   -5.2202 C.3     1  UNL1        0.1582
     31 C          17.1171   70.3922   -6.2455 C.3     1  UNL1        0.1625
     32 C          18.0132   70.7015   -7.4494 C.3     1  UNL1        0.1686
     33 C          19.4408   70.9493   -6.9575 C.3     1  UNL1        0.1760
     34 O          15.7549   70.3057   -6.6680 O.3     1  UNL1       -0.3801
     35 O          18.0025   69.5927   -8.3506 O.3     1  UNL1       -0.3794
     36 O          19.4595   72.0733   -6.0785 O.3     1  UNL1       -0.3263
     37 H          15.7069   69.5843   -7.3103 H       1  UNL1        0.2105
     38 H          18.5784   69.8288   -9.0916 H       1  UNL1        0.2105
     39 C          16.3248   69.8821   -3.6843 C.2     1  UNL1        0.2231
     40 C          15.5748   69.5250   -2.4264 C.3     1  UNL1        0.0946
     41 N          16.5382   71.1745   -3.9981 N.am    1  UNL1       -0.2994
     42 O          16.7357   69.0057   -4.4147 O.2     1  UNL1       -0.2751
     43 H          16.2093   71.8760   -3.4139 H       1  UNL1        0.1496
     44 C          20.3508   71.2272   -8.1557 C.3     1  UNL1        0.1693
     45 O          21.6393   71.6348   -7.6914 O.3     1  UNL1       -0.3794
     46 H          22.1800   71.7998   -8.4756 H       1  UNL1        0.2105
@<TRIPOS>BOND
     1    29    30    1
     2    29    28    1
     3    29    36    1
     4    30    31    1
     5    30    41    1
     6    31    32    1
     7    31    34    1
     8    32    33    1
     9    32    35    1
    10    33    44    1
    11    33    36    1
    12    44    45    1
    13    39    40    1
    14    39    41   am
    15    39    42    2
    16    41    43    1
    17    28    25    1
    18    34    37    1
    19    35    38    1
    20    45    46    1
    21    15    16   ar
    22    15    20   ar
    23    15     6    1
    24    16    17   ar
    25    16    21    2
    26    17    18   ar
    27    17    23    1
    28    18    19   ar
    29    18    22    2
    30    19    20   ar
    31     6     7    1
    32     6    11    1
    33     7     8    1
    34     7     9    1
    35     8    13    1
    36     9    10    1
    37     9    12    1
    38    10    11    1
    39    10     5    1
    40    12    14    1
    41     5     4    1
    42     4     1    1
    43     1     2    2
    44     1     3    1
    45     1    24    1
    46    24    25    1
    47    25    26    2
    48    25    27    1
@<TRIPOS>MOLECULE
UD1
 46 48 0 0 0
SMALL
GASTEIGER

@<TRIPOS>ATOM
      1 P          20.8981   71.4880   -0.1325 P.3     1  UNL1        0.2189
      2 O          21.2593   70.2594    0.6083 O.2     1  UNL1       -0.5170
      3 O          22.2119   72.0949   -0.8383 O.3     1  UNL1       -0.4371
      4 O          20.2907   72.5723    0.8913 O.3     1  UNL1       -0.3112
      5 C          21.3974   73.1562    1.5804 C.3     1  UNL1        0.1811
      6 C          22.3353   73.5475    5.0292 C.3     1  UNL1        0.2383
      7 C          21.3121   74.6824    4.7740 C.3     1  UNL1        0.1895
      8 O          20.5805   74.9876    5.9618 O.3     1  UNL1       -0.3779
      9 C          20.3869   74.0516    3.7010 C.3     1  UNL1        0.1713
     10 C          21.2412   72.9271    3.0845 C.3     1  UNL1        0.1764
     11 O          22.5295   72.9678    3.7216 O.3     1  UNL1       -0.3308
     12 O          19.2082   73.5177    4.3080 O.3     1  UNL1       -0.3794
     13 H          19.9643   75.6983    5.7365 H       1  UNL1        0.2106
     14 H          18.7494   74.2585    4.7261 H       1  UNL1        0.2105
     15 N          23.5930   74.0886    5.5459 N.ar    1  UNL1       -0.2551
     16 C          23.7921   74.1599    6.8735 C.ar    1  UNL1        0.3323
     17 N          24.9408   74.6494    7.3768 N.ar    1  UNL1       -0.2743
     18 C          25.9124   75.0872    6.5509 C.ar    1  UNL1        0.2626
     19 C          25.7135   75.0234    5.1511 C.ar    1  UNL1        0.0795
     20 C          24.5540   74.5230    4.6732 C.ar    1  UNL1        0.0869
     21 O          22.9252   73.7689    7.6312 O.2     1  UNL1       -0.2464
     22 O          26.9494   75.5344    7.0049 O.2     1  UNL1       -0.2670
     23 H          25.0694   74.6890    8.3370 H       1  UNL1        0.1734
     24 O          19.7997   71.1351   -1.2541 O.3     1  UNL1       -0.2703
     25 P          20.5299   71.2778   -2.6809 P.3     1  UNL1        0.2208
     26 O          21.7794   70.4856   -2.6769 O.2     1  UNL1       -0.5170
     27 O          20.8777   72.8259   -2.9541 O.3     1  UNL1       -0.4371
     28 O          19.5546   70.7357   -3.8408 O.3     1  UNL1       -0.2865
     29 C          18.7803   71.8508   -4.2861 C.3     1  UNL1        0.2611
     30 C          17.3369   71.4019   -4.5206 C.3     1  UNL1        0.1582
     31 C          17.3240   70.2818   -5.5669 C.3     1  UNL1        0.1625
     32 C          18.0663   70.7691   -6.8157 C.3     1  UNL1        0.1686
     33 C          19.4561   71.2630   -6.4084 C.3     1  UNL1        0.1760
     34 O          15.9741   69.9573   -5.9043 O.3     1  UNL1       -0.3801
     35 O          18.1939   69.6925   -7.7465 O.3     1  UNL1       -0.3794
     36 O          19.3320   72.3564   -5.4999 O.3     1  UNL1       -0.3263
     37 H          16.0130   69.2503   -6.5631 H       1  UNL1        0.2105
     38 H          18.6664   70.0419   -8.5153 H       1  UNL1        0.2105
     39 C          16.7932   69.5898   -2.9860 C.2     1  UNL1        0.2231
     40 C          16.2066   69.0810   -1.6939 C.3     1  UNL1        0.0946
     41 N          16.7676   70.9072   -3.2653 N.am    1  UNL1       -0.2994
     42 O          17.2877   68.8129   -3.7747 O.2     1  UNL1       -0.2751
     43 H          16.3717   71.5291   -2.6344 H       1  UNL1        0.1496
     44 C          20.2180   71.7219   -7.6534 C.3     1  UNL1        0.1693
     45 O          21.5402   71.1804   -7.6297 O.3     1  UNL1       -0.3794
     46 H          21.9850   71.4931   -8.4291 H       1  UNL1        0.2105
@<TRIPOS>BOND
     1    29    30    1
     2    29    28    1
     3    29    36    1
     4    30    31    1
     5    30    41    1
     6    31    32    1
     7    31    34    1
     8    32    33    1
     9    32    35    1
    10    33    44    1
    11    33    36    1
    12    44    45    1
    13    39    40    1
    14    39    41   am
    15    39    42    2
    16    41    43    1
    17    28    25    1
    18    34    37    1
    19    35    38    1
    20    45    46    1
    21    15    16   ar
    22    15    20   ar
    23    15     6    1
    24    16    17   ar
    25    16    21    2
    26    17    18   ar
    27    17    23    1
    28    18    19   ar
    29    18    22    2
    30    19    20   ar
    31     6     7    1
    32     6    11    1
    33     7     8    1
    34     7     9    1
    35     8    13    1
    36     9    10    1
    37     9    12    1
    38    10    11    1
    39    10     5    1
    40    12    14    1
    41     5     4    1
    42     4     1    1
    43     1     2    2
    44     1     3    1
    45     1    24    1
    46    24    25    1
    47    25    26    2
    48    25    27    1
@<TRIPOS>MOLECULE
UD1
 46 48 0 0 0
SMALL
GASTEIGER

@<TRIPOS>ATOM
      1 P          19.1109   74.6145   -0.9467 P.3     1  UNL1        0.2189
      2 O          18.7653   76.0395   -1.1431 O.2     1  UNL1       -0.5170
      3 O          17.7627   73.7585   -0.7415 O.3     1  UNL1       -0.4371
      4 O          20.0446   74.4639    0.3565 O.3     1  UNL1       -0.3112
      5 C          21.1790   73.6888   -0.0343 C.3     1  UNL1        0.1811
      6 C          23.1725   71.8788    2.3483 C.3     1  UNL1        0.2383
      7 C          22.4336   72.9473    3.1924 C.3     1  UNL1        0.1895
      8 O          22.1904   72.4735    4.5174 O.3     1  UNL1       -0.3779
      9 C          21.1039   73.1162    2.4124 C.3     1  UNL1        0.1713
     10 C          21.4287   72.5908    1.0007 C.3     1  UNL1        0.1764
     11 O          22.8167   72.2160    0.9906 O.3     1  UNL1       -0.3308
     12 O          20.0674   72.3391    3.0162 O.3     1  UNL1       -0.3794
     13 H          21.7308   73.1822    4.9884 H       1  UNL1        0.2106
     14 H          19.9528   72.6765    3.9146 H       1  UNL1        0.2105
     15 N          24.6200   71.9741    2.5414 N.ar    1  UNL1       -0.2551
     16 C          25.3909   70.8901    2.3468 C.ar    1  UNL1        0.3323
     17 N          26.7254   70.9496    2.5133 N.ar    1  UNL1       -0.2743
     18 C          27.3124   72.1037    2.8895 C.ar    1  UNL1        0.2626
     19 C          26.5120   73.2510    3.1036 C.ar    1  UNL1        0.0795
     20 C          25.1764   73.1647    2.9243 C.ar    1  UNL1        0.0869
     21 O          24.8762   69.8420    2.0072 O.2     1  UNL1       -0.2464
     22 O          28.5183   72.1574    3.0450 O.2     1  UNL1       -0.2670
     23 H          27.2667   70.1591    2.3640 H       1  UNL1        0.1734
     24 O          19.9013   74.0710   -2.2386 O.3     1  UNL1       -0.2703
     25 P          18.8160   73.3372   -3.1729 P.3     1  UNL1        0.2208
     26 O          17.6533   74.2299   -3.3727 O.2     1  UNL1       -0.5170
     27 O          18.3306   71.9752   -2.4647 O.3     1  UNL1       -0.4371
     28 O          19.4789   72.9923   -4.5984 O.3     1  UNL1       -0.2865
     29 C          20.1869   71.7616   -4.4394 C.3     1  UNL1        0.2611
     30 C          21.6536   71.9697   -4.8211 C.3     1  UNL1        0.1582
     31 C          21.7297   72.4540   -6.2734 C.3     1  UNL1        0.1625
     32 C          20.9587   71.4697   -7.1593 C.3     1  UNL1        0.1686
     33 C          19.5433   71.3016   -6.6029 C.3     1  UNL1        0.1760
     34 O          23.0956   72.5087   -6.6889 O.3     1  UNL1       -0.3801
     35 O          20.8922   71.9781   -8.4930 O.3     1  UNL1       -0.3794
     36 O          19.6052   70.7681   -5.2808 O.3     1  UNL1       -0.3263
     37 H          23.0967   72.8176   -7.6054 H       1  UNL1        0.2105
     38 H          20.3992   71.3296   -9.0154 H       1  UNL1        0.2105
     39 C          23.5016   72.7962   -3.4661 C.2     1  UNL1        0.2231
     40 C          24.1171   73.8284   -2.5562 C.3     1  UNL1        0.0946
     41 N          22.2522   72.9724   -3.9375 N.am    1  UNL1       -0.2994
     42 O          24.1309   71.8064   -3.7734 O.2     1  UNL1       -0.2751
     43 H          21.7483   73.7643   -3.6916 H       1  UNL1        0.1496
     44 C          18.7544   70.3451   -7.4995 C.3     1  UNL1        0.1693
     45 O          17.5941   71.0108   -8.0023 O.3     1  UNL1       -0.3794
     46 H          17.1265   70.3748   -8.5604 H       1  UNL1        0.2105
@<TRIPOS>BOND
     1    29    30    1
     2    29    28    1
     3    29    36    1
     4    30    31    1
     5    30    41    1
     6    31    32    1
     7    31    34    1
     8    32    33    1
     9    32    35    1
    10    33    44    1
    11    33    36    1
    12    44    45    1
    13    39    40    1
    14    39    41   am
    15    39    42    2
    16    41    43    1
    17    28    25    1
    18    34    37    1
    19    35    38    1
    20    45    46    1
    21    15    16   ar
    22    15    20   ar
    23    15     6    1
    24    16    17   ar
    25    16    21    2
    26    17    18   ar
    27    17    23    1
    28    18    19   ar
    29    18    22    2
    30    19    20   ar
    31     6     7    1
    32     6    11    1
    33     7     8    1
    34     7     9    1
    35     8    13    1
    36     9    10    1
    37     9    12    1
    38    10    11    1
    39    10     5    1
    40    12    14    1
    41     5     4    1
    42     4     1    1
    43     1     2    2
    44     1     3    1
    45     1    24    1
    46    24    25    1
    47    25    26    2
    48    25    27    1
@<TRIPOS>MOLECULE
UD1
 46 48 0 0 0
SMALL
GASTEIGER

@<TRIPOS>ATOM
      1 P          21.8356   71.4579   -0.5421 P.3     1  UNL1        0.2189
      2 O          21.1903   72.7586   -0.8261 O.2     1  UNL1       -0.5170
      3 O          20.8958   70.5959    0.4409 O.3     1  UNL1       -0.4371
      4 O          23.2609   71.7093    0.1636 O.3     1  UNL1       -0.3112
      5 C          23.1234   72.8816    0.9681 C.3     1  UNL1        0.1811
      6 C          23.0573   73.3139    4.5369 C.3     1  UNL1        0.2383
      7 C          21.7416   73.9655    4.0425 C.3     1  UNL1        0.1895
      8 O          20.7131   73.8505    5.0265 O.3     1  UNL1       -0.3779
      9 C          21.4070   73.1140    2.7902 C.3     1  UNL1        0.1713
     10 C          22.7555   72.4801    2.3974 C.3     1  UNL1        0.1764
     11 O          23.7461   72.9748    3.3145 O.3     1  UNL1       -0.3308
     12 O          20.4476   72.1050    3.1130 O.3     1  UNL1       -0.3794
     13 H          19.9250   74.2739    4.6588 H       1  UNL1        0.2106
     14 H          19.6490   72.5629    3.4074 H       1  UNL1        0.2105
     15 N          23.8430   74.2638    5.3255 N.ar    1  UNL1       -0.2551
     16 C          24.5628   75.2127    4.7019 C.ar    1  UNL1        0.3323
     17 N          25.2916   76.1020    5.4021 N.ar    1  UNL1       -0.2743
     18 C          25.3181   76.0484    6.7490 C.ar    1  UNL1        0.2626
     19 C          24.5697   75.0508    7.4181 C.ar    1  UNL1        0.0795
     20 C          23.8432   74.1748    6.6915 C.ar    1  UNL1        0.0869
     21 O          24.5490   75.2740    3.4876 O.2     1  UNL1       -0.2464
     22 O          25.9804   76.8490    7.3829 O.2     1  UNL1       -0.2670
     23 H          25.8010   76.7828    4.9360 H       1  UNL1        0.1734
     24 O          22.0530   70.6547   -1.9192 O.3     1  UNL1       -0.2703
     25 P          22.9644   71.5870   -2.8623 P.3     1  UNL1        0.2208
     26 O          24.2831   70.9469   -3.0622 O.2     1  UNL1       -0.5170
     27 O          23.1663   73.0236   -2.1639 O.3     1  UNL1       -0.4371
     28 O          22.2409   71.7815   -4.2868 O.3     1  UNL1       -0.2865
     29 C          21.5845   73.0499   -4.2486 C.3     1  UNL1        0.2611
     30 C          20.0945   72.8563   -4.5360 C.3     1  UNL1        0.1582
     31 C          19.9305   72.2034   -5.9131 C.3     1  UNL1        0.1625
     32 C          20.6904   73.0416   -6.9466 C.3     1  UNL1        0.1686
     33 C          22.1364   73.2186   -6.4787 C.3     1  UNL1        0.1760
     34 O          18.5447   72.1538   -6.2575 O.3     1  UNL1       -0.3801
     35 O          20.6737   72.3733   -8.2095 O.3     1  UNL1       -0.3794
     36 O          22.1580   73.9102   -5.2306 O.3     1  UNL1       -0.3263
     37 H          18.4879   71.7367   -7.1282 H       1  UNL1        0.2105
     38 H          21.1624   72.9336   -8.8289 H       1  UNL1        0.2105
     39 C          19.3559   70.6745   -3.7432 C.2     1  UNL1        0.2231
     40 C          18.7494   69.7860   -2.6873 C.3     1  UNL1        0.0946
     41 N          19.5059   71.9927   -3.5104 N.am    1  UNL1       -0.2994
     42 O          19.7085   70.2028   -4.8031 O.2     1  UNL1       -0.2751
     43 H          19.2236   72.3705   -2.6623 H       1  UNL1        0.1496
     44 C          22.9128   74.0272   -7.5201 C.3     1  UNL1        0.1693
     45 O          23.3388   73.1620   -8.5747 O.3     1  UNL1       -0.3794
     46 H          23.8230   73.7095   -9.2075 H       1  UNL1        0.2105
@<TRIPOS>BOND
     1    29    30    1
     2    29    28    1
     3    29    36    1
     4    30    31    1
     5    30    41    1
     6    31    32    1
     7    31    34    1
     8    32    33    1
     9    32    35    1
    10    33    44    1
    11    33    36    1
    12    44    45    1
    13    39    40    1
    14    39    41   am
    15    39    42    2
    16    41    43    1
    17    28    25    1
    18    34    37    1
    19    35    38    1
    20    45    46    1
    21    15    16   ar
    22    15    20   ar
    23    15     6    1
    24    16    17   ar
    25    16    21    2
    26    17    18   ar
    27    17    23    1
    28    18    19   ar
    29    18    22    2
    30    19    20   ar
    31     6     7    1
    32     6    11    1
    33     7     8    1
    34     7     9    1
    35     8    13    1
    36     9    10    1
    37     9    12    1
    38    10    11    1
    39    10     5    1
    40    12    14    1
    41     5     4    1
    42     4     1    1
    43     1     2    2
    44     1     3    1
    45     1    24    1
    46    24    25    1
    47    25    26    2
    48    25    27    1
@<TRIPOS>MOLECULE
UD1
 46 48 0 0 0
SMALL
GASTEIGER

@<TRIPOS>ATOM
      1 P          22.5761   72.5938   -1.1017 P.3     1  UNL1        0.2189
      2 O          23.5725   73.6793   -0.9690 O.2     1  UNL1       -0.5170
      3 O          23.3278   71.1700   -1.0837 O.3     1  UNL1       -0.4371
      4 O          21.7815   72.7625   -2.4920 O.3     1  UNL1       -0.3112
      5 C          21.3023   71.4667   -2.8547 C.3     1  UNL1        0.1811
      6 C          20.5444   71.0634   -6.3462 C.3     1  UNL1        0.2383
      7 C          20.9507   72.5519   -6.2066 C.3     1  UNL1        0.1895
      8 O          21.5622   73.0294   -7.4054 O.3     1  UNL1       -0.3779
      9 C          21.9762   72.5019   -5.0443 C.3     1  UNL1        0.1713
     10 C          21.6529   71.1829   -4.3162 C.3     1  UNL1        0.1764
     11 O          20.5258   70.5893   -4.9829 O.3     1  UNL1       -0.3308
     12 O          23.3110   72.4847   -5.5551 O.3     1  UNL1       -0.3794
     13 H          21.7897   73.9571   -7.2536 H       1  UNL1        0.2106
     14 H          23.4316   73.3066   -6.0490 H       1  UNL1        0.2105
     15 N          19.2184   70.9416   -6.9531 N.ar    1  UNL1       -0.2551
     16 C          18.1308   71.3198   -6.2593 C.ar    1  UNL1        0.3323
     17 N          16.8992   71.2227   -6.7941 N.ar    1  UNL1       -0.2743
     18 C          16.7358   70.7323   -8.0394 C.ar    1  UNL1        0.2626
     19 C          17.8718   70.3249   -8.7786 C.ar    1  UNL1        0.0795
     20 C          19.0959   70.4382   -8.2202 C.ar    1  UNL1        0.0869
     21 O          18.2619   71.7641   -5.1350 O.2     1  UNL1       -0.2464
     22 O          15.6223   70.6396   -8.5220 O.2     1  UNL1       -0.2670
     23 H          16.1262   71.5046   -6.2811 H       1  UNL1        0.1734
     24 O          21.5355   72.6678    0.1233 O.3     1  UNL1       -0.2703
     25 P          22.1570   71.7834    1.3153 P.3     1  UNL1        0.2208
     26 O          23.6340   71.8263    1.2427 O.2     1  UNL1       -0.5170
     27 O          21.6574   70.2597    1.1707 O.3     1  UNL1       -0.4371
     28 O          21.6720   72.3734    2.7320 O.3     1  UNL1       -0.2865
     29 C          21.9123   73.7813    2.6988 C.3     1  UNL1        0.2611
     30 C          22.7736   74.1752    3.9001 C.3     1  UNL1        0.1582
     31 C          22.0452   73.7808    5.1899 C.3     1  UNL1        0.1625
     32 C          20.6405   74.3926    5.1662 C.3     1  UNL1        0.1686
     33 C          19.9389   73.9798    3.8706 C.3     1  UNL1        0.1760
     34 O          22.7679   74.2762    6.3185 O.3     1  UNL1       -0.3801
     35 O          19.8935   73.9181    6.2880 O.3     1  UNL1       -0.3794
     36 O          20.6678   74.4758    2.7484 O.3     1  UNL1       -0.3263
     37 H          22.2758   74.0058    7.1060 H       1  UNL1        0.2105
     38 H          19.0177   74.3262    6.2338 H       1  UNL1        0.2105
     39 C          25.1809   74.1606    3.5277 C.2     1  UNL1        0.2231
     40 C          26.5045   73.4427    3.4555 C.3     1  UNL1        0.0946
     41 N          24.0596   73.4784    3.8303 N.am    1  UNL1       -0.2994
     42 O          25.1252   75.3526    3.3127 O.2     1  UNL1       -0.2751
     43 H          24.1039   72.5244    4.0022 H       1  UNL1        0.1496
     44 C          18.5229   74.5591    3.8519 C.3     1  UNL1        0.1693
     45 O          18.4964   75.7775    4.5982 O.3     1  UNL1       -0.3794
     46 H          17.5887   76.1084    4.5616 H       1  UNL1        0.2105
@<TRIPOS>BOND
     1    29    30    1
     2    29    28    1
     3    29    36    1
     4    30    31    1
     5    30    41    1
     6    31    32    1
     7    31    34    1
     8    32    33    1
     9    32    35    1
    10    33    44    1
    11    33    36    1
    12    44    45    1
    13    39    40    1
    14    39    41   am
    15    39    42    2
    16    41    43    1
    17    28    25    1
    18    34    37    1
    19    35    38    1
    20    45    46    1
    21    15    16   ar
    22    15    20   ar
    23    15     6    1
    24    16    17   ar
    25    16    21    2
    26    17    18   ar
    27    17    23    1
    28    18    19   ar
    29    18    22    2
    30    19    20   ar
    31     6     7    1
    32     6    11    1
    33     7     8    1
    34     7     9    1
    35     8    13    1
    36     9    10    1
    37     9    12    1
    38    10    11    1
    39    10     5    1
    40    12    14    1
    41     5     4    1
    42     4     1    1
    43     1     2    2
    44     1     3    1
    45     1    24    1
    46    24    25    1
    47    25    26    2
    48    25    27    1
