@<TRIPOS>MOLECULE
UDP-glaA
 43 45 0 0 0
SMALL
GASTEIGER

@<TRIPOS>ATOM
      1 P          22.9863   71.9419   -3.4140 P.3     1  UNL1        0.2189
      2 O          23.7273   72.9289   -4.4600 O.3     1  UNL1       -0.4371
      3 O          23.6592   70.6163   -3.2091 O.2     1  UNL1       -0.5170
      4 O          21.4614   71.8809   -3.9492 O.3     1  UNL1       -0.3112
      5 C          20.6333   70.8155   -3.5152 C.3     1  UNL1        0.1811
      6 O          18.8161   71.9244   -4.6298 O.3     1  UNL1       -0.3308
      7 O          17.0554   70.7948   -2.4814 O.3     1  UNL1       -0.3794
      8 O          16.5955   69.1098   -4.5754 O.3     1  UNL1       -0.3779
      9 C          18.1950   70.2129   -3.1141 C.3     1  UNL1        0.1713
     10 C          17.8453   69.7658   -4.5178 C.3     1  UNL1        0.1895
     11 C          19.2050   71.3225   -3.3753 C.3     1  UNL1        0.1764
     12 C          17.8502   71.0808   -5.2784 C.3     1  UNL1        0.2383
     13 H          17.3366   71.1008   -1.6023 H       1  UNL1        0.2105
     14 H          16.6400   68.3424   -3.9794 H       1  UNL1        0.2106
     15 O          16.0420   70.4629   -7.3579 O.2     1  UNL1       -0.2464
     16 O          19.3929   70.4727  -10.5218 O.2     1  UNL1       -0.2670
     17 N          18.2226   70.9168   -6.6546 N.ar    1  UNL1       -0.2551
     18 N          17.7119   70.4677   -8.9319 N.ar    1  UNL1       -0.2743
     19 C          17.2375   70.6061   -7.6209 C.ar    1  UNL1        0.3323
     20 C          19.5519   71.0635   -7.0351 C.ar    1  UNL1        0.0869
     21 C          19.9884   70.9289   -8.2894 C.ar    1  UNL1        0.0795
     22 C          19.0238   70.6038   -9.3588 C.ar    1  UNL1        0.2626
     23 H          17.0214   70.2438   -9.6434 H       1  UNL1        0.1734
     24 O          22.8672   72.8500   -2.0811 O.3     1  UNL1       -0.2703
     25 P          22.3026   74.3492   -1.8665 P.3     1  UNL1        0.2208
     26 O          20.7931   74.2630   -2.4412 O.3     1  UNL1       -0.4371
     27 O          23.1455   75.4209   -2.4963 O.2     1  UNL1       -0.5170
     28 O          22.1239   74.4941   -0.2693 O.3     1  UNL1       -0.2858
     29 O          21.1204   72.4462    0.3620 O.3     1  UNL1       -0.3226
     30 O          21.8320   74.2390    4.0442 O.3     1  UNL1       -0.3794
     31 O          20.8506   75.8142    1.7944 O.3     1  UNL1       -0.3775
     32 O          20.9964   71.7637    3.1472 O.3     1  UNL1       -0.3792
     33 C          22.0428   73.8899    2.6789 C.3     1  UNL1        0.1718
     34 C          20.8815   74.3909    1.8137 C.3     1  UNL1        0.1968
     35 C          22.1587   72.3671    2.5693 C.3     1  UNL1        0.1723
     36 C          21.0127   73.8735    0.3759 C.3     1  UNL1        0.2706
     37 C          22.2425   71.9632    1.0990 C.3     1  UNL1        0.1830
     38 H          22.5881   73.9008    4.5536 H       1  UNL1        0.2105
     39 H          20.1076   76.0838    1.2287 H       1  UNL1        0.2106
     40 H          20.2474   71.8935    2.5412 H       1  UNL1        0.2106
     41 O          23.2044   69.9042    1.6812 O.co2   1  UNL1       -0.5466
     42 O          21.4409   69.8550    0.2373 O.co2   1  UNL1       -0.5466
     43 C          22.2266   70.4764    0.9381 C.2     1  UNL1        0.0799
@<TRIPOS>UNITY_ATOM_ATTR
41 1
charge -1
@<TRIPOS>BOND
     1     1     4    1
     2     1    24    1
     3     1     2    1
     4     1     3    2
     5    25    28    1
     6    25    24    1
     7    25    26    1
     8    25    27    2
     9     6    11    1
    10     6    12    1
    11    29    36    1
    12    29    37    1
    13     7     9    1
    14     7    13    1
    15     8    10    1
    16     8    14    1
    17     4     5    1
    18    28    36    1
    19    30    33    1
    20    30    38    1
    21    31    34    1
    22    31    39    1
    23    32    35    1
    24    32    40    1
    25    41    43   ar
    26    15    19    2
    27    42    43   ar
    28    16    22    2
    29    17    12    1
    30    17    19   ar
    31    17    20   ar
    32    18    19   ar
    33    18    22   ar
    34    18    23    1
    35     9    10    1
    36     9    11    1
    37    10    12    1
    38    11     5    1
    39    33    34    1
    40    33    35    1
    41    34    36    1
    42    35    37    1
    43    37    43    1
    44    20    21   ar
    45    21    22   ar
@<TRIPOS>MOLECULE
UDP-glaA
 43 45 0 0 0
SMALL
GASTEIGER

@<TRIPOS>ATOM
      1 P          21.9472   73.8179   -6.0454 P.3     1  UNL1        0.2189
      2 O          22.2871   75.3838   -6.2690 O.3     1  UNL1       -0.4371
      3 O          22.7992   72.8665   -6.8335 O.2     1  UNL1       -0.5170
      4 O          20.3551   73.7227   -6.3131 O.3     1  UNL1       -0.3112
      5 C          19.8107   74.4242   -7.4179 C.3     1  UNL1        0.1811
      6 O          19.6272   72.0965   -7.9857 O.3     1  UNL1       -0.3308
      7 O          17.9707   72.9888  -10.3204 O.3     1  UNL1       -0.3794
      8 O          16.0852   72.1445   -8.5406 O.3     1  UNL1       -0.3779
      9 C          18.0327   73.5257   -8.9992 C.3     1  UNL1        0.1713
     10 C          17.3151   72.6131   -8.0273 C.3     1  UNL1        0.1895
     11 C          19.4754   73.4299   -8.5205 C.3     1  UNL1        0.1764
     12 C          18.3293   71.4988   -7.8329 C.3     1  UNL1        0.2383
     13 H          18.4754   73.5851  -10.8995 H       1  UNL1        0.2105
     14 H          15.5359   72.9221   -8.7398 H       1  UNL1        0.2106
     15 O          16.1453   69.9501   -6.9344 O.2     1  UNL1       -0.2464
     16 O          18.1010   69.2465   -2.8211 O.2     1  UNL1       -0.2670
     17 N          18.2416   70.8985   -6.5324 N.ar    1  UNL1       -0.2551
     18 N          17.1204   69.6012   -4.8865 N.ar    1  UNL1       -0.2743
     19 C          17.1008   70.1402   -6.1797 C.ar    1  UNL1        0.3323
     20 C          19.2789   71.0638   -5.6213 C.ar    1  UNL1        0.0869
     21 C          19.2828   70.5431   -4.3922 C.ar    1  UNL1        0.0795
     22 C          18.1286   69.7385   -3.9450 C.ar    1  UNL1        0.2626
     23 H          16.3102   69.0528   -4.6110 H       1  UNL1        0.1734
     24 O          22.0564   73.6490   -4.4408 O.3     1  UNL1       -0.2703
     25 P          23.2354   73.0424   -3.5164 P.3     1  UNL1        0.2208
     26 O          24.5327   73.9011   -3.9587 O.3     1  UNL1       -0.4371
     27 O          23.4068   71.5549   -3.6341 O.2     1  UNL1       -0.5170
     28 O          22.8929   73.5581   -2.0262 O.3     1  UNL1       -0.2858
     29 O          21.6678   71.8087   -1.0073 O.3     1  UNL1       -0.3226
     30 O          21.9715   74.5734    2.0820 O.3     1  UNL1       -0.3794
     31 O          21.4345   75.4532   -0.6463 O.3     1  UNL1       -0.3775
     32 O          21.1001   71.9672    1.8018 O.3     1  UNL1       -0.3792
     33 C          22.3498   73.8377    0.9218 C.3     1  UNL1        0.1718
     34 C          21.3619   74.0965   -0.2208 C.3     1  UNL1        0.1968
     35 C          22.3725   72.3461    1.2668 C.3     1  UNL1        0.1723
     36 C          21.6601   73.1809   -1.4145 C.3     1  UNL1        0.2706
     37 C          22.6365   71.5309    0.0027 C.3     1  UNL1        0.1830
     38 H          22.6214   74.3777    2.7783 H       1  UNL1        0.2105
     39 H          20.8006   75.5666   -1.3745 H       1  UNL1        0.2106
     40 H          20.4562   71.9352    1.0742 H       1  UNL1        0.2106
     41 O          23.7360   69.4596    0.0693 O.co2   1  UNL1       -0.5466
     42 O          21.5239   69.4789    0.6202 O.co2   1  UNL1       -0.5466
     43 C          22.5390   70.0623    0.2684 C.2     1  UNL1        0.0799
@<TRIPOS>UNITY_ATOM_ATTR
41 1
charge -1
@<TRIPOS>BOND
     1     1     4    1
     2     1    24    1
     3     1     2    1
     4     1     3    2
     5    25    28    1
     6    25    24    1
     7    25    26    1
     8    25    27    2
     9     6    11    1
    10     6    12    1
    11    29    36    1
    12    29    37    1
    13     7     9    1
    14     7    13    1
    15     8    10    1
    16     8    14    1
    17     4     5    1
    18    28    36    1
    19    30    33    1
    20    30    38    1
    21    31    34    1
    22    31    39    1
    23    32    35    1
    24    32    40    1
    25    41    43   ar
    26    15    19    2
    27    42    43   ar
    28    16    22    2
    29    17    12    1
    30    17    19   ar
    31    17    20   ar
    32    18    19   ar
    33    18    22   ar
    34    18    23    1
    35     9    10    1
    36     9    11    1
    37    10    12    1
    38    11     5    1
    39    33    34    1
    40    33    35    1
    41    34    36    1
    42    35    37    1
    43    37    43    1
    44    20    21   ar
    45    21    22   ar
@<TRIPOS>MOLECULE
UDP-glaA
 43 45 0 0 0
SMALL
GASTEIGER

@<TRIPOS>ATOM
      1 P          22.9403   71.6549   -2.8421 P.3     1  UNL1        0.2189
      2 O          23.8014   72.9326   -3.3355 O.3     1  UNL1       -0.4371
      3 O          23.5153   70.3207   -3.2182 O.2     1  UNL1       -0.5170
      4 O          21.4481   71.9563   -3.3880 O.3     1  UNL1       -0.3112
      5 C          20.5730   70.8629   -3.6067 C.3     1  UNL1        0.1811
      6 O          18.7388   71.9272   -4.7368 O.3     1  UNL1       -0.3308
      7 O          16.9930   70.7848   -2.5831 O.3     1  UNL1       -0.3794
      8 O          16.5712   69.0721   -4.6626 O.3     1  UNL1       -0.3779
      9 C          18.1452   70.2184   -3.2070 C.3     1  UNL1        0.1713
     10 C          17.8082   69.7519   -4.6075 C.3     1  UNL1        0.1895
     11 C          19.1350   71.3444   -3.4757 C.3     1  UNL1        0.1764
     12 C          17.7908   71.0597   -5.3804 C.3     1  UNL1        0.2383
     13 H          17.2657   71.1041   -1.7061 H       1  UNL1        0.2105
     14 H          16.6282   68.3112   -4.0593 H       1  UNL1        0.2106
     15 O          15.9942   70.4298   -7.4662 O.2     1  UNL1       -0.2464
     16 O          19.3611   70.4299  -10.6130 O.2     1  UNL1       -0.2670
     17 N          18.1705   70.8899   -6.7538 N.ar    1  UNL1       -0.2551
     18 N          17.6720   70.4298   -9.0317 N.ar    1  UNL1       -0.2743
     19 C          17.1907   70.5735   -7.7237 C.ar    1  UNL1        0.3323
     20 C          19.5015   71.0367   -7.1283 C.ar    1  UNL1        0.0869
     21 C          19.9445   70.8970   -8.3797 C.ar    1  UNL1        0.0795
     22 C          18.9859   70.5657   -9.4525 C.ar    1  UNL1        0.2626
     23 H          16.9854   70.2017   -9.7456 H       1  UNL1        0.1734
     24 O          22.8018   71.9041   -1.2503 O.3     1  UNL1       -0.2703
     25 P          22.4686   70.8831   -0.0423 P.3     1  UNL1        0.2208
     26 O          23.7394   69.8826   -0.0409 O.3     1  UNL1       -0.4371
     27 O          21.1387   70.1961   -0.1657 O.2     1  UNL1       -0.5170
     28 O          22.6416   71.7650    1.2979 O.3     1  UNL1       -0.2858
     29 O          21.8254   72.3645    3.4366 O.3     1  UNL1       -0.3226
     30 O          20.9265   75.7402    1.1837 O.3     1  UNL1       -0.3794
     31 O          20.5405   73.0714    0.0726 O.3     1  UNL1       -0.3775
     32 O          20.8610   75.0355    3.8537 O.3     1  UNL1       -0.3792
     33 C          21.6480   74.5893    1.6140 C.3     1  UNL1        0.1718
     34 C          20.7914   73.3293    1.4501 C.3     1  UNL1        0.1968
     35 C          22.0380   74.7702    3.0836 C.3     1  UNL1        0.1723
     36 C          21.4914   72.1124    2.0677 C.3     1  UNL1        0.2706
     37 C          22.6871   73.4894    3.6036 C.3     1  UNL1        0.1830
     38 H          21.5047   76.5122    1.3074 H       1  UNL1        0.2105
     39 H          20.0048   72.2621    0.0185 H       1  UNL1        0.2106
     40 H          20.3562   74.2093    3.9410 H       1  UNL1        0.2106
     41 O          24.2169   74.0480    5.2922 O.co2   1  UNL1       -0.5466
     42 O          22.1809   73.2643    5.9537 O.co2   1  UNL1       -0.5466
     43 C          22.9671   73.5744    5.0703 C.2     1  UNL1        0.0799
@<TRIPOS>UNITY_ATOM_ATTR
41 1
charge -1
@<TRIPOS>BOND
     1     1     4    1
     2     1    24    1
     3     1     2    1
     4     1     3    2
     5    25    28    1
     6    25    24    1
     7    25    26    1
     8    25    27    2
     9     6    11    1
    10     6    12    1
    11    29    36    1
    12    29    37    1
    13     7     9    1
    14     7    13    1
    15     8    10    1
    16     8    14    1
    17     4     5    1
    18    28    36    1
    19    30    33    1
    20    30    38    1
    21    31    34    1
    22    31    39    1
    23    32    35    1
    24    32    40    1
    25    41    43   ar
    26    15    19    2
    27    42    43   ar
    28    16    22    2
    29    17    12    1
    30    17    19   ar
    31    17    20   ar
    32    18    19   ar
    33    18    22   ar
    34    18    23    1
    35     9    10    1
    36     9    11    1
    37    10    12    1
    38    11     5    1
    39    33    34    1
    40    33    35    1
    41    34    36    1
    42    35    37    1
    43    37    43    1
    44    20    21   ar
    45    21    22   ar
@<TRIPOS>MOLECULE
UDP-glaA
 43 45 0 0 0
SMALL
GASTEIGER

@<TRIPOS>ATOM
      1 P          22.7993   71.7028   -2.2170 P.3     1  UNL1        0.2189
      2 O          23.2467   73.2547   -2.3105 O.3     1  UNL1       -0.4371
      3 O          23.4759   70.7889   -3.1963 O.2     1  UNL1       -0.5170
      4 O          21.1853   71.7566   -2.3050 O.3     1  UNL1       -0.3112
      5 C          20.5682   71.5463   -3.5636 C.3     1  UNL1        0.1811
      6 O          18.6152   72.3022   -4.7421 O.3     1  UNL1       -0.3308
      7 O          17.0278   71.1242   -2.4874 O.3     1  UNL1       -0.3794
      8 O          16.8001   69.2257   -4.4316 O.3     1  UNL1       -0.3779
      9 C          18.2356   70.6526   -3.0847 C.3     1  UNL1        0.1713
     10 C          17.9486   70.0482   -4.4429 C.3     1  UNL1        0.1895
     11 C          19.0842   71.8641   -3.4478 C.3     1  UNL1        0.1764
     12 C          17.7729   71.2846   -5.3080 C.3     1  UNL1        0.2383
     13 H          17.2657   71.5368   -1.6396 H       1  UNL1        0.2105
     14 H          16.9497   68.5232   -3.7757 H       1  UNL1        0.2106
     15 O          16.0267   70.3933   -7.3408 O.2     1  UNL1       -0.2464
     16 O          19.3800   70.4557  -10.5016 O.2     1  UNL1       -0.2670
     17 N          18.1626   71.0601   -6.6708 N.ar    1  UNL1       -0.2551
     18 N          17.6978   70.4245   -8.9132 N.ar    1  UNL1       -0.2743
     19 C          17.2086   70.6113   -7.6137 C.ar    1  UNL1        0.3323
     20 C          19.4781   71.2842   -7.0614 C.ar    1  UNL1        0.0869
     21 C          19.9289   71.1020   -8.3045 C.ar    1  UNL1        0.0795
     22 C          18.9970   70.6337   -9.3493 C.ar    1  UNL1        0.2626
     23 H          17.0296   70.1015   -9.6078 H       1  UNL1        0.1734
     24 O          23.0664   71.3417   -0.6634 O.3     1  UNL1       -0.2703
     25 P          22.1637   70.5356    0.4080 P.3     1  UNL1        0.2208
     26 O          23.2578   69.9303    1.4340 O.3     1  UNL1       -0.4371
     27 O          21.2521   69.5099   -0.2024 O.2     1  UNL1       -0.5170
     28 O          21.4055   71.6843    1.2504 O.3     1  UNL1       -0.2858
     29 O          21.9115   73.9958    1.2384 O.3     1  UNL1       -0.3226
     30 O          20.2084   73.4966    4.9973 O.3     1  UNL1       -0.3794
     31 O          22.0506   71.5039    3.9288 O.3     1  UNL1       -0.3775
     32 O          21.0220   75.6211    3.4306 O.3     1  UNL1       -0.3792
     33 C          20.4298   73.2858    3.6056 C.3     1  UNL1        0.1718
     34 C          21.8607   72.7953    3.3603 C.3     1  UNL1        0.1968
     35 C          20.1926   74.6027    2.8614 C.3     1  UNL1        0.1723
     36 C          22.1626   72.7301    1.8580 C.3     1  UNL1        0.2706
     37 C          20.5621   74.4340    1.3893 C.3     1  UNL1        0.1830
     38 H          19.2935   73.8079    5.1050 H       1  UNL1        0.2105
     39 H          22.9647   71.2320    3.7406 H       1  UNL1        0.2106
     40 H          21.9399   75.4634    3.1520 H       1  UNL1        0.2106
     41 O          21.6020   76.4563    0.8123 O.co2   1  UNL1       -0.5466
     42 O          19.5091   76.0922   -0.0147 O.co2   1  UNL1       -0.5466
     43 C          20.4694   75.7307    0.6497 C.2     1  UNL1        0.0799
@<TRIPOS>UNITY_ATOM_ATTR
41 1
charge -1
@<TRIPOS>BOND
     1     1     4    1
     2     1    24    1
     3     1     2    1
     4     1     3    2
     5    25    28    1
     6    25    24    1
     7    25    26    1
     8    25    27    2
     9     6    11    1
    10     6    12    1
    11    29    36    1
    12    29    37    1
    13     7     9    1
    14     7    13    1
    15     8    10    1
    16     8    14    1
    17     4     5    1
    18    28    36    1
    19    30    33    1
    20    30    38    1
    21    31    34    1
    22    31    39    1
    23    32    35    1
    24    32    40    1
    25    41    43   ar
    26    15    19    2
    27    42    43   ar
    28    16    22    2
    29    17    12    1
    30    17    19   ar
    31    17    20   ar
    32    18    19   ar
    33    18    22   ar
    34    18    23    1
    35     9    10    1
    36     9    11    1
    37    10    12    1
    38    11     5    1
    39    33    34    1
    40    33    35    1
    41    34    36    1
    42    35    37    1
    43    37    43    1
    44    20    21   ar
    45    21    22   ar
@<TRIPOS>MOLECULE
UDP-glaA
 43 45 0 0 0
SMALL
GASTEIGER

@<TRIPOS>ATOM
      1 P          20.2558   73.6419   -4.7986 P.3     1  UNL1        0.2189
      2 O          20.3775   74.8639   -3.7455 O.3     1  UNL1       -0.4371
      3 O          20.5553   74.0026   -6.2242 O.2     1  UNL1       -0.5170
      4 O          18.7828   73.0342   -4.5219 O.3     1  UNL1       -0.3112
      5 C          18.4003   72.7680   -3.1833 C.3     1  UNL1        0.1811
      6 O          17.1996   71.0905   -4.4155 O.3     1  UNL1       -0.3308
      7 O          18.0230   69.1810   -2.2551 O.3     1  UNL1       -0.3794
      8 O          19.7865   68.6129   -4.2558 O.3     1  UNL1       -0.3779
      9 C          18.7471   70.2750   -2.8178 C.3     1  UNL1        0.1713
     10 C          19.2472   69.9175   -4.2015 C.3     1  UNL1        0.1895
     11 C          17.7548   71.3912   -3.1161 C.3     1  UNL1        0.1764
     12 C          17.9888   70.0645   -5.0398 C.3     1  UNL1        0.2383
     13 H          17.6898   69.4693   -1.3882 H       1  UNL1        0.2105
     14 H          20.5157   68.5707   -3.6134 H       1  UNL1        0.2106
     15 O          16.0381   70.3474   -7.0622 O.2     1  UNL1       -0.2464
     16 O          19.1964   71.5539  -10.1941 O.2     1  UNL1       -0.2670
     17 N          18.2731   70.4518   -6.3921 N.ar    1  UNL1       -0.2551
     18 N          17.6122   70.9475   -8.6206 N.ar    1  UNL1       -0.2743
     19 C          17.2212   70.5639   -7.3309 C.ar    1  UNL1        0.3323
     20 C          19.5830   70.7160   -6.7766 C.ar    1  UNL1        0.0869
     21 C          19.9396   71.0812   -8.0100 C.ar    1  UNL1        0.0795
     22 C          18.9015   71.2205   -9.0505 C.ar    1  UNL1        0.2626
     23 H          16.8725   71.0339   -9.3123 H       1  UNL1        0.1734
     24 O          21.2355   72.5207   -4.1674 O.3     1  UNL1       -0.2703
     25 P          22.7143   72.6444   -3.5266 P.3     1  UNL1        0.2208
     26 O          23.3593   73.8970   -4.3210 O.3     1  UNL1       -0.4371
     27 O          23.5241   71.3816   -3.5980 O.2     1  UNL1       -0.5170
     28 O          22.4666   73.1939   -2.0297 O.3     1  UNL1       -0.2858
     29 O          21.5733   71.4378   -0.7191 O.3     1  UNL1       -0.3226
     30 O          21.6468   74.5929    1.9862 O.3     1  UNL1       -0.3794
     31 O          20.8284   75.0307   -0.7787 O.3     1  UNL1       -0.3775
     32 O          21.1530   71.8770    2.0860 O.3     1  UNL1       -0.3792
     33 C          22.0609   73.7733    0.8966 C.3     1  UNL1        0.1718
     34 C          20.9809   73.7433   -0.1902 C.3     1  UNL1        0.1968
     35 C          22.3226   72.3564    1.4143 C.3     1  UNL1        0.1723
     36 C          21.3403   72.7316   -1.2854 C.3     1  UNL1        0.2706
     37 C          22.6294   71.4295    0.2401 C.3     1  UNL1        0.1830
     38 H          22.3579   74.5806    2.6493 H       1  UNL1        0.2105
     39 H          20.1434   74.9603   -1.4648 H       1  UNL1        0.2106
     40 H          20.4795   71.6626    1.4185 H       1  UNL1        0.2106
     41 O          23.4543   69.9350    1.8494 O.co2   1  UNL1       -0.5466
     42 O          22.3144   69.0403    0.0895 O.co2   1  UNL1       -0.5466
     43 C          22.7644   70.0081    0.6856 C.2     1  UNL1        0.0799
@<TRIPOS>UNITY_ATOM_ATTR
41 1
charge -1
@<TRIPOS>BOND
     1     1     4    1
     2     1    24    1
     3     1     2    1
     4     1     3    2
     5    25    28    1
     6    25    24    1
     7    25    26    1
     8    25    27    2
     9     6    11    1
    10     6    12    1
    11    29    36    1
    12    29    37    1
    13     7     9    1
    14     7    13    1
    15     8    10    1
    16     8    14    1
    17     4     5    1
    18    28    36    1
    19    30    33    1
    20    30    38    1
    21    31    34    1
    22    31    39    1
    23    32    35    1
    24    32    40    1
    25    41    43   ar
    26    15    19    2
    27    42    43   ar
    28    16    22    2
    29    17    12    1
    30    17    19   ar
    31    17    20   ar
    32    18    19   ar
    33    18    22   ar
    34    18    23    1
    35     9    10    1
    36     9    11    1
    37    10    12    1
    38    11     5    1
    39    33    34    1
    40    33    35    1
    41    34    36    1
    42    35    37    1
    43    37    43    1
    44    20    21   ar
    45    21    22   ar
@<TRIPOS>MOLECULE
UDP-glaA
 43 45 0 0 0
SMALL
GASTEIGER

@<TRIPOS>ATOM
      1 P          21.4390   71.0669   -2.6264 P.3     1  UNL1        0.2189
      2 O          21.4622   69.4773   -2.9265 O.3     1  UNL1       -0.4371
      3 O          20.0755   71.6457   -2.3854 O.2     1  UNL1       -0.5170
      4 O          22.2672   71.7083   -3.8585 O.3     1  UNL1       -0.3112
      5 C          21.8589   72.9669   -4.3669 C.3     1  UNL1        0.1811
      6 O          21.7049   72.0486   -6.5822 O.3     1  UNL1       -0.3308
      7 O          22.8099   74.6657   -7.5418 O.3     1  UNL1       -0.3794
      8 O          20.1432   74.9230   -8.0502 O.3     1  UNL1       -0.3779
      9 C          21.9112   74.4057   -6.4636 C.3     1  UNL1        0.1713
     10 C          20.5352   74.0671   -6.9969 C.3     1  UNL1        0.1895
     11 C          22.3302   73.0962   -5.8084 C.3     1  UNL1        0.1764
     12 C          20.7174   72.6286   -7.4503 C.3     1  UNL1        0.2383
     13 H          23.6849   74.8387   -7.1545 H       1  UNL1        0.2105
     14 H          20.1566   75.8334   -7.7080 H       1  UNL1        0.2106
     15 O          19.0317   72.0308   -9.6359 O.2     1  UNL1       -0.2464
     16 O          16.0909   69.6957   -6.9643 O.2     1  UNL1       -0.2670
     17 N          19.5055   71.8660   -7.3547 N.ar    1  UNL1       -0.2551
     18 N          17.5681   70.8689   -8.3040 N.ar    1  UNL1       -0.2743
     19 C          18.7305   71.6228   -8.5127 C.ar    1  UNL1        0.3323
     20 C          19.0955   71.3677   -6.1231 C.ar    1  UNL1        0.0869
     21 C          17.9848   70.6501   -5.9405 C.ar    1  UNL1        0.0795
     22 C          17.1189   70.3523   -7.0986 C.ar    1  UNL1        0.2626
     23 H          16.9951   70.6822   -9.1225 H       1  UNL1        0.1734
     24 O          22.4631   71.2159   -1.3837 O.3     1  UNL1       -0.2703
     25 P          22.4486   70.5481    0.0881 P.3     1  UNL1        0.2208
     26 O          23.8734   69.7863    0.1640 O.3     1  UNL1       -0.4371
     27 O          21.2604   69.6687    0.3539 O.2     1  UNL1       -0.5170
     28 O          22.5968   71.7934    1.1037 O.3     1  UNL1       -0.2858
     29 O          21.8593   72.3883    3.2720 O.3     1  UNL1       -0.3226
     30 O          21.1063   75.8597    1.1130 O.3     1  UNL1       -0.3794
     31 O          20.5482   73.2429   -0.0474 O.3     1  UNL1       -0.3775
     32 O          21.0555   75.0987    3.7678 O.3     1  UNL1       -0.3792
     33 C          21.7705   74.6608    1.5025 C.3     1  UNL1        0.1718
     34 C          20.8411   73.4546    1.3297 C.3     1  UNL1        0.1968
     35 C          22.1998   74.7858    2.9669 C.3     1  UNL1        0.1723
     36 C          21.4839   72.1867    1.9055 C.3     1  UNL1        0.2706
     37 C          22.7861   73.4591    3.4448 C.3     1  UNL1        0.1830
     38 H          21.7295   76.5952    1.2410 H       1  UNL1        0.2105
     39 H          19.9668   72.4662   -0.1075 H       1  UNL1        0.2106
     40 H          20.5068   74.3002    3.8480 H       1  UNL1        0.2106
     41 O          24.3230   74.0376    5.1203 O.co2   1  UNL1       -0.5466
     42 O          22.3598   73.0941    5.7932 O.co2   1  UNL1       -0.5466
     43 C          23.1002   73.4947    4.9067 C.2     1  UNL1        0.0799
@<TRIPOS>UNITY_ATOM_ATTR
41 1
charge -1
@<TRIPOS>BOND
     1     1     4    1
     2     1    24    1
     3     1     2    1
     4     1     3    2
     5    25    28    1
     6    25    24    1
     7    25    26    1
     8    25    27    2
     9     6    11    1
    10     6    12    1
    11    29    36    1
    12    29    37    1
    13     7     9    1
    14     7    13    1
    15     8    10    1
    16     8    14    1
    17     4     5    1
    18    28    36    1
    19    30    33    1
    20    30    38    1
    21    31    34    1
    22    31    39    1
    23    32    35    1
    24    32    40    1
    25    41    43   ar
    26    15    19    2
    27    42    43   ar
    28    16    22    2
    29    17    12    1
    30    17    19   ar
    31    17    20   ar
    32    18    19   ar
    33    18    22   ar
    34    18    23    1
    35     9    10    1
    36     9    11    1
    37    10    12    1
    38    11     5    1
    39    33    34    1
    40    33    35    1
    41    34    36    1
    42    35    37    1
    43    37    43    1
    44    20    21   ar
    45    21    22   ar
@<TRIPOS>MOLECULE
UDP-glaA
 43 45 0 0 0
SMALL
GASTEIGER

@<TRIPOS>ATOM
      1 P          22.1780   70.4647   -0.0985 P.3     1  UNL1        0.2189
      2 O          20.9989   69.8145   -0.9954 O.3     1  UNL1       -0.4371
      3 O          23.3512   69.5637    0.1541 O.2     1  UNL1       -0.5170
      4 O          21.4119   71.0071    1.2184 O.3     1  UNL1       -0.3112
      5 C          21.6724   72.3295    1.6573 C.3     1  UNL1        0.1811
      6 O          23.3704   72.6763    3.3219 O.3     1  UNL1       -0.3308
      7 O          21.1266   72.8681    5.3018 O.3     1  UNL1       -0.3794
      8 O          21.7731   75.4833    4.8791 O.3     1  UNL1       -0.3779
      9 C          21.1775   73.3179    3.9480 C.3     1  UNL1        0.1713
     10 C          22.0330   74.5625    3.8399 C.3     1  UNL1        0.1895
     11 C          21.9852   72.3054    3.1467 C.3     1  UNL1        0.1764
     12 C          23.4374   73.9871    3.9072 C.3     1  UNL1        0.2383
     13 H          20.6019   72.0496    5.3158 H       1  UNL1        0.2105
     14 H          20.8303   75.7183    4.8329 H       1  UNL1        0.2106
     15 O          25.8223   75.0278    5.0048 O.2     1  UNL1       -0.2464
     16 O          27.0119   77.0037    1.0149 O.2     1  UNL1       -0.2670
     17 N          24.3887   74.7762    3.1781 N.ar    1  UNL1       -0.2551
     18 N          26.4128   76.0115    3.0174 N.ar    1  UNL1       -0.2743
     19 C          25.5546   75.2514    3.8228 C.ar    1  UNL1        0.3323
     20 C          24.1620   75.0722    1.8385 C.ar    1  UNL1        0.0869
     21 C          24.9902   75.7978    1.0840 C.ar    1  UNL1        0.0795
     22 C          26.2299   76.3325    1.6812 C.ar    1  UNL1        0.2626
     23 H          27.2571   76.3641    3.4601 H       1  UNL1        0.1734
     24 O          22.5332   71.8248   -0.8979 O.3     1  UNL1       -0.2703
     25 P          22.7277   72.1062   -2.4777 P.3     1  UNL1        0.2208
     26 O          23.3788   70.7294   -3.0224 O.3     1  UNL1       -0.4371
     27 O          23.5293   73.3373   -2.7900 O.2     1  UNL1       -0.5170
     28 O          21.2301   72.1155   -3.0787 O.3     1  UNL1       -0.2858
     29 O          20.1130   70.5026   -4.4015 O.3     1  UNL1       -0.3226
     30 O          18.4527   74.0572   -5.7755 O.3     1  UNL1       -0.3794
     31 O          21.3066   73.8794   -5.2014 O.3     1  UNL1       -0.3775
     32 O          17.9833   71.3577   -6.1255 O.3     1  UNL1       -0.3792
     33 C          19.0207   73.1304   -4.8542 C.3     1  UNL1        0.1718
     34 C          20.4418   72.7516   -5.2849 C.3     1  UNL1        0.1968
     35 C          18.1384   71.8802   -4.8019 C.3     1  UNL1        0.1723
     36 C          20.9966   71.6288   -4.3996 C.3     1  UNL1        0.2706
     37 C          18.8042   70.8183   -3.9293 C.3     1  UNL1        0.1830
     38 H          17.5550   74.2662   -5.4655 H       1  UNL1        0.2105
     39 H          22.1936   73.5898   -5.4735 H       1  UNL1        0.2106
     40 H          18.8169   70.9327   -6.3894 H       1  UNL1        0.2106
     41 O          16.7279   69.7601   -4.2000 O.co2   1  UNL1       -0.5466
     42 O          18.5270   68.4245   -3.7799 O.co2   1  UNL1       -0.5466
     43 C          18.0407   69.5325   -3.9538 C.2     1  UNL1        0.0799
@<TRIPOS>UNITY_ATOM_ATTR
41 1
charge -1
@<TRIPOS>BOND
     1     1     4    1
     2     1    24    1
     3     1     2    1
     4     1     3    2
     5    25    28    1
     6    25    24    1
     7    25    26    1
     8    25    27    2
     9     6    11    1
    10     6    12    1
    11    29    36    1
    12    29    37    1
    13     7     9    1
    14     7    13    1
    15     8    10    1
    16     8    14    1
    17     4     5    1
    18    28    36    1
    19    30    33    1
    20    30    38    1
    21    31    34    1
    22    31    39    1
    23    32    35    1
    24    32    40    1
    25    41    43   ar
    26    15    19    2
    27    42    43   ar
    28    16    22    2
    29    17    12    1
    30    17    19   ar
    31    17    20   ar
    32    18    19   ar
    33    18    22   ar
    34    18    23    1
    35     9    10    1
    36     9    11    1
    37    10    12    1
    38    11     5    1
    39    33    34    1
    40    33    35    1
    41    34    36    1
    42    35    37    1
    43    37    43    1
    44    20    21   ar
    45    21    22   ar
@<TRIPOS>MOLECULE
UDP-glaA
 43 45 0 0 0
SMALL
GASTEIGER

@<TRIPOS>ATOM
      1 P          22.8609   71.7750   -3.1240 P.3     1  UNL1        0.2189
      2 O          23.8156   70.4715   -3.2073 O.3     1  UNL1       -0.4371
      3 O          22.5665   72.2561   -1.7333 O.2     1  UNL1       -0.5170
      4 O          21.5733   71.3726   -4.0159 O.3     1  UNL1       -0.3112
      5 C          20.6764   70.3985   -3.5100 C.3     1  UNL1        0.1811
      6 O          18.9646   71.7123   -4.5675 O.3     1  UNL1       -0.3308
      7 O          17.1174   70.6715   -2.4471 O.3     1  UNL1       -0.3794
      8 O          16.4920   69.1159   -4.5975 O.3     1  UNL1       -0.3779
      9 C          18.1947   70.0103   -3.1104 C.3     1  UNL1        0.1713
     10 C          17.7977   69.6504   -4.5265 C.3     1  UNL1        0.1895
     11 C          19.3022   71.0304   -3.3394 C.3     1  UNL1        0.1764
     12 C          17.9211   70.9869   -5.2384 C.3     1  UNL1        0.2383
     13 H          17.4304   70.9169   -1.5597 H       1  UNL1        0.2105
     14 H          16.4679   68.3260   -4.0305 H       1  UNL1        0.2106
     15 O          16.0673   70.4640   -7.3036 O.2     1  UNL1       -0.2464
     16 O          19.3730   70.4426  -10.5146 O.2     1  UNL1       -0.2670
     17 N          18.2695   70.8405   -6.6227 N.ar    1  UNL1       -0.2551
     18 N          17.7147   70.4532   -8.9011 N.ar    1  UNL1       -0.2743
     19 C          17.2626   70.5782   -7.5809 C.ar    1  UNL1        0.3323
     20 C          19.5972   70.9568   -7.0194 C.ar    1  UNL1        0.0869
     21 C          20.0122   70.8355   -8.2822 C.ar    1  UNL1        0.0795
     22 C          19.0240   70.5603   -9.3440 C.ar    1  UNL1        0.2626
     23 H          17.0082   70.2639   -9.6069 H       1  UNL1        0.1734
     24 O          23.6295   72.8474   -4.0590 O.3     1  UNL1       -0.2703
     25 P          23.3925   74.4323   -4.2698 P.3     1  UNL1        0.2208
     26 O          24.8865   75.0458   -4.1826 O.3     1  UNL1       -0.4371
     27 O          22.4146   75.0423   -3.3068 O.2     1  UNL1       -0.5170
     28 O          22.9799   74.5812   -5.8227 O.3     1  UNL1       -0.2858
     29 O          24.0805   75.5732   -7.6677 O.3     1  UNL1       -0.3226
     30 O          20.0928   76.4322   -8.4676 O.3     1  UNL1       -0.3794
     31 O          21.1362   76.6350   -5.7517 O.3     1  UNL1       -0.3775
     32 O          22.5008   76.6656   -9.8007 O.3     1  UNL1       -0.3792
     33 C          21.2203   75.7010   -7.9938 C.3     1  UNL1        0.1718
     34 C          21.9545   76.4952   -6.9082 C.3     1  UNL1        0.1968
     35 C          22.1621   75.4264   -9.1694 C.3     1  UNL1        0.1723
     36 C          23.2621   75.7967   -6.5148 C.3     1  UNL1        0.2706
     37 C          23.4424   74.7691   -8.6586 C.3     1  UNL1        0.1830
     38 H          19.6611   75.8941   -9.1529 H       1  UNL1        0.2105
     39 H          21.6450   77.1344   -5.0909 H       1  UNL1        0.2106
     40 H          23.1238   77.1439   -9.2278 H       1  UNL1        0.2106
     41 O          25.4397   75.5136   -9.6384 O.co2   1  UNL1       -0.5466
     42 O          24.3863   73.7552  -10.6362 O.co2   1  UNL1       -0.5466
     43 C          24.4458   74.6003   -9.7548 C.2     1  UNL1        0.0799
@<TRIPOS>UNITY_ATOM_ATTR
41 1
charge -1
@<TRIPOS>BOND
     1     1     4    1
     2     1    24    1
     3     1     2    1
     4     1     3    2
     5    25    28    1
     6    25    24    1
     7    25    26    1
     8    25    27    2
     9     6    11    1
    10     6    12    1
    11    29    36    1
    12    29    37    1
    13     7     9    1
    14     7    13    1
    15     8    10    1
    16     8    14    1
    17     4     5    1
    18    28    36    1
    19    30    33    1
    20    30    38    1
    21    31    34    1
    22    31    39    1
    23    32    35    1
    24    32    40    1
    25    41    43   ar
    26    15    19    2
    27    42    43   ar
    28    16    22    2
    29    17    12    1
    30    17    19   ar
    31    17    20   ar
    32    18    19   ar
    33    18    22   ar
    34    18    23    1
    35     9    10    1
    36     9    11    1
    37    10    12    1
    38    11     5    1
    39    33    34    1
    40    33    35    1
    41    34    36    1
    42    35    37    1
    43    37    43    1
    44    20    21   ar
    45    21    22   ar
@<TRIPOS>MOLECULE
UDP-glaA
 43 45 0 0 0
SMALL
GASTEIGER

@<TRIPOS>ATOM
      1 P          22.9692   72.0462   -2.9136 P.3     1  UNL1        0.2189
      2 O          23.5658   70.5694   -3.1977 O.3     1  UNL1       -0.4371
      3 O          22.9400   72.4498   -1.4684 O.2     1  UNL1       -0.5170
      4 O          21.5403   72.0416   -3.6711 O.3     1  UNL1       -0.3112
      5 C          20.6985   70.9108   -3.5227 C.3     1  UNL1        0.1811
      6 O          18.8466   72.0237   -4.5743 O.3     1  UNL1       -0.3308
      7 O          17.1333   70.7736   -2.4546 O.3     1  UNL1       -0.3794
      8 O          16.6860   69.1625   -4.6087 O.3     1  UNL1       -0.3779
      9 C          18.2779   70.2412   -3.1211 C.3     1  UNL1        0.1713
     10 C          17.9223   69.8422   -4.5378 C.3     1  UNL1        0.1895
     11 C          19.2616   71.3815   -3.3486 C.3     1  UNL1        0.1764
     12 C          17.8915   71.1859   -5.2460 C.3     1  UNL1        0.2383
     13 H          17.4176   71.0507   -1.5670 H       1  UNL1        0.2105
     14 H          16.7529   68.3734   -4.0439 H       1  UNL1        0.2106
     15 O          16.1107   71.6192   -7.3946 O.2     1  UNL1       -0.2464
     16 O          19.3867   70.7644  -10.5214 O.2     1  UNL1       -0.2670
     17 N          18.2523   71.0839   -6.6312 N.ar    1  UNL1       -0.2551
     18 N          17.7431   71.1927   -8.9502 N.ar    1  UNL1       -0.2743
     19 C          17.2822   71.3203   -7.6332 C.ar    1  UNL1        0.3323
     20 C          19.5553   70.7525   -6.9855 C.ar    1  UNL1        0.0869
     21 C          19.9793   70.6352   -8.2458 C.ar    1  UNL1        0.0795
     22 C          19.0287   70.8649   -9.3518 C.ar    1  UNL1        0.2626
     23 H          17.0628   71.3576   -9.6872 H       1  UNL1        0.1734
     24 O          23.8783   72.9923   -3.8589 O.3     1  UNL1       -0.2703
     25 P          23.9800   74.6020   -3.9637 P.3     1  UNL1        0.2208
     26 O          25.5725   74.8676   -4.0612 O.3     1  UNL1       -0.4371
     27 O          23.2962   75.3365   -2.8463 O.2     1  UNL1       -0.5170
     28 O          23.4167   74.9524   -5.4347 O.3     1  UNL1       -0.2858
     29 O          21.3821   75.9549   -6.1090 O.3     1  UNL1       -0.3226
     30 O          22.1194   73.3015   -9.2227 O.3     1  UNL1       -0.3794
     31 O          22.6158   72.5164   -6.4581 O.3     1  UNL1       -0.3775
     32 O          20.3266   75.3384   -8.7060 O.3     1  UNL1       -0.3792
     33 C          22.4027   74.2240   -8.1743 C.3     1  UNL1        0.1718
     34 C          21.8923   73.6833   -6.8343 C.3     1  UNL1        0.1968
     35 C          21.7247   75.5593   -8.4929 C.3     1  UNL1        0.1723
     36 C          22.0374   74.7395   -5.7317 C.3     1  UNL1        0.2706
     37 C          21.8971   76.5163   -7.3153 C.3     1  UNL1        0.1830
     38 H          22.4569   73.6850  -10.0500 H       1  UNL1        0.2105
     39 H          22.2652   72.2170   -5.6023 H       1  UNL1        0.2106
     40 H          19.9064   75.1670   -7.8462 H       1  UNL1        0.2106
     41 O          21.1315   78.1257   -8.8409 O.co2   1  UNL1       -0.5466
     42 O          20.5983   78.4387   -6.6466 O.co2   1  UNL1       -0.5466
     43 C          21.1402   77.7885   -7.5287 C.2     1  UNL1        0.0799
@<TRIPOS>UNITY_ATOM_ATTR
41 1
charge -1
@<TRIPOS>BOND
     1     1     4    1
     2     1    24    1
     3     1     2    1
     4     1     3    2
     5    25    28    1
     6    25    24    1
     7    25    26    1
     8    25    27    2
     9     6    11    1
    10     6    12    1
    11    29    36    1
    12    29    37    1
    13     7     9    1
    14     7    13    1
    15     8    10    1
    16     8    14    1
    17     4     5    1
    18    28    36    1
    19    30    33    1
    20    30    38    1
    21    31    34    1
    22    31    39    1
    23    32    35    1
    24    32    40    1
    25    41    43   ar
    26    15    19    2
    27    42    43   ar
    28    16    22    2
    29    17    12    1
    30    17    19   ar
    31    17    20   ar
    32    18    19   ar
    33    18    22   ar
    34    18    23    1
    35     9    10    1
    36     9    11    1
    37    10    12    1
    38    11     5    1
    39    33    34    1
    40    33    35    1
    41    34    36    1
    42    35    37    1
    43    37    43    1
    44    20    21   ar
    45    21    22   ar
@<TRIPOS>MOLECULE
UDP-glaA
 43 45 0 0 0
SMALL
GASTEIGER

@<TRIPOS>ATOM
      1 P          21.4307   71.2254   -0.9959 P.3     1  UNL1        0.2189
      2 O          23.0155   71.3717   -0.7057 O.3     1  UNL1       -0.4371
      3 O          20.8921   69.8295   -0.8793 O.2     1  UNL1       -0.5170
      4 O          21.2303   71.9383   -2.4337 O.3     1  UNL1       -0.3112
      5 C          20.4907   71.2550   -3.4314 C.3     1  UNL1        0.1811
      6 O          18.5991   72.2217   -4.5546 O.3     1  UNL1       -0.3308
      7 O          16.9140   70.9004   -2.4555 O.3     1  UNL1       -0.3794
      8 O          16.6344   69.2225   -4.5867 O.3     1  UNL1       -0.3779
      9 C          18.1095   70.4331   -3.0802 C.3     1  UNL1        0.1713
     10 C          17.8206   69.9844   -4.4972 C.3     1  UNL1        0.1895
     11 C          19.0215   71.6320   -3.3052 C.3     1  UNL1        0.1764
     12 C          17.7206   71.3093   -5.2338 C.3     1  UNL1        0.2383
     13 H          17.1546   71.2127   -1.5666 H       1  UNL1        0.2105
     14 H          16.7378   68.4505   -4.0040 H       1  UNL1        0.2106
     15 O          16.0900   71.9960   -7.4350 O.2     1  UNL1       -0.2464
     16 O          19.3802   70.8670  -10.4581 O.2     1  UNL1       -0.2670
     17 N          18.1257   71.2053   -6.6066 N.ar    1  UNL1       -0.2551
     18 N          17.7293   71.4329   -8.9389 N.ar    1  UNL1       -0.2743
     19 C          17.2305   71.5752   -7.6374 C.ar    1  UNL1        0.3323
     20 C          19.3981   70.7408   -6.9205 C.ar    1  UNL1        0.0869
     21 C          19.8591   70.6112   -8.1665 C.ar    1  UNL1        0.0795
     22 C          18.9868   70.9750   -9.3007 C.ar    1  UNL1        0.2626
     23 H          17.1028   71.6922   -9.6961 H       1  UNL1        0.1734
     24 O          20.7746   72.2884    0.0311 O.3     1  UNL1       -0.2703
     25 P          20.8893   73.8989    0.1068 P.3     1  UNL1        0.2208
     26 O          19.3469   74.3834    0.0585 O.3     1  UNL1       -0.4371
     27 O          21.7630   74.5048   -0.9539 O.2     1  UNL1       -0.5170
     28 O          21.3661   74.2042    1.6179 O.3     1  UNL1       -0.2858
     29 O          23.5747   74.3503    2.4548 O.3     1  UNL1       -0.3226
     30 O          21.4707   73.0074    5.7789 O.3     1  UNL1       -0.3794
     31 O          20.8882   71.9422    3.1271 O.3     1  UNL1       -0.3775
     32 O          24.0281   73.9099    5.2546 O.3     1  UNL1       -0.3792
     33 C          21.7208   73.7141    4.5671 C.3     1  UNL1        0.1718
     34 C          22.0318   72.7338    3.4311 C.3     1  UNL1        0.1968
     35 C          22.9051   74.6607    4.7813 C.3     1  UNL1        0.1723
     36 C          22.4697   73.4866    2.1686 C.3     1  UNL1        0.2706
     37 C          23.2794   75.3222    3.4567 C.3     1  UNL1        0.1830
     38 H          21.2814   73.6660    6.4688 H       1  UNL1        0.2105
     39 H          21.1296   71.3457    2.3985 H       1  UNL1        0.2106
     40 H          24.3898   73.3948    4.5137 H       1  UNL1        0.2106
     41 O          24.1918   77.4628    3.7554 O.co2   1  UNL1       -0.5466
     42 O          25.6573   75.7274    3.5616 O.co2   1  UNL1       -0.5466
     43 C          24.5131   76.1569    3.5913 C.2     1  UNL1        0.0799
@<TRIPOS>UNITY_ATOM_ATTR
41 1
charge -1
@<TRIPOS>BOND
     1     1     4    1
     2     1    24    1
     3     1     2    1
     4     1     3    2
     5    25    28    1
     6    25    24    1
     7    25    26    1
     8    25    27    2
     9     6    11    1
    10     6    12    1
    11    29    36    1
    12    29    37    1
    13     7     9    1
    14     7    13    1
    15     8    10    1
    16     8    14    1
    17     4     5    1
    18    28    36    1
    19    30    33    1
    20    30    38    1
    21    31    34    1
    22    31    39    1
    23    32    35    1
    24    32    40    1
    25    41    43   ar
    26    15    19    2
    27    42    43   ar
    28    16    22    2
    29    17    12    1
    30    17    19   ar
    31    17    20   ar
    32    18    19   ar
    33    18    22   ar
    34    18    23    1
    35     9    10    1
    36     9    11    1
    37    10    12    1
    38    11     5    1
    39    33    34    1
    40    33    35    1
    41    34    36    1
    42    35    37    1
    43    37    43    1
    44    20    21   ar
    45    21    22   ar
@<TRIPOS>MOLECULE
UDP-glaA
 43 45 0 0 0
SMALL
GASTEIGER

@<TRIPOS>ATOM
      1 P          22.8920   72.1385   -3.2973 P.3     1  UNL1        0.2189
      2 O          23.4100   70.7433   -2.6630 O.3     1  UNL1       -0.4371
      3 O          23.9125   72.8829   -4.1076 O.2     1  UNL1       -0.5170
      4 O          22.2797   72.9383   -2.0320 O.3     1  UNL1       -0.3112
      5 C          22.3124   72.3177   -0.7580 C.3     1  UNL1        0.1811
      6 O          21.2815   72.5653    1.3984 O.3     1  UNL1       -0.3308
      7 O          19.0958   74.0455   -0.0240 O.3     1  UNL1       -0.3794
      8 O          20.5773   76.0643    1.0557 O.3     1  UNL1       -0.3779
      9 C          20.4992   74.0375   -0.2848 C.3     1  UNL1        0.1713
     10 C          21.2328   74.8476    0.7631 C.3     1  UNL1        0.1895
     11 C          21.0181   72.6302   -0.0206 C.3     1  UNL1        0.1764
     12 C          21.2487   73.8938    1.9456 C.3     1  UNL1        0.2383
     13 H          18.6730   73.4837   -0.6956 H       1  UNL1        0.2105
     14 H          20.5117   76.5682    0.2262 H       1  UNL1        0.2106
     15 O          23.7599   74.8103    1.0349 O.2     1  UNL1       -0.2464
     16 O          25.5834   74.5738    5.2607 O.2     1  UNL1       -0.2670
     17 N          22.3967   74.0815    2.7859 N.ar    1  UNL1       -0.2551
     18 N          24.6664   74.6914    3.1397 N.ar    1  UNL1       -0.2743
     19 C          23.6115   74.5453    2.2292 C.ar    1  UNL1        0.3323
     20 C          22.3122   73.8066    4.1463 C.ar    1  UNL1        0.0869
     21 C          23.3269   73.9515    5.0014 C.ar    1  UNL1        0.0795
     22 C          24.6306   74.4305    4.5007 C.ar    1  UNL1        0.2626
     23 H          25.5497   75.0231    2.7617 H       1  UNL1        0.1734
     24 O          21.5722   71.6948   -4.1196 O.3     1  UNL1       -0.2703
     25 P          20.3641   70.6955   -3.7265 P.3     1  UNL1        0.2208
     26 O          19.3910   71.6248   -2.8290 O.3     1  UNL1       -0.4371
     27 O          20.8072   69.4289   -3.0518 O.2     1  UNL1       -0.5170
     28 O          19.5558   70.4691   -5.1046 O.3     1  UNL1       -0.2858
     29 O          19.2428   71.9802   -6.8985 O.3     1  UNL1       -0.3226
     30 O          15.7704   69.7012   -7.0637 O.3     1  UNL1       -0.3794
     31 O          16.8638   70.5516   -4.4971 O.3     1  UNL1       -0.3775
     32 O          16.9819   71.6262   -8.6310 O.3     1  UNL1       -0.3792
     33 C          17.1458   70.0045   -6.8482 C.3     1  UNL1        0.1718
     34 C          17.2938   71.0661   -5.7530 C.3     1  UNL1        0.1968
     35 C          17.7514   70.5156   -8.1584 C.3     1  UNL1        0.1723
     36 C          18.7529   71.5235   -5.6335 C.3     1  UNL1        0.2706
     37 C          19.1856   70.9799   -7.9142 C.3     1  UNL1        0.1830
     38 H          15.7246   69.0287   -7.7646 H       1  UNL1        0.2105
     39 H          16.9846   71.2535   -3.8356 H       1  UNL1        0.2106
     40 H          17.1782   72.3977   -8.0729 H       1  UNL1        0.2106
     41 O          20.8498   72.3652   -8.8171 O.co2   1  UNL1       -0.5466
     42 O          19.3496   71.4590  -10.2750 O.co2   1  UNL1       -0.5466
     43 C          19.7735   71.6072   -9.1380 C.2     1  UNL1        0.0799
@<TRIPOS>UNITY_ATOM_ATTR
41 1
charge -1
@<TRIPOS>BOND
     1     1     4    1
     2     1    24    1
     3     1     2    1
     4     1     3    2
     5    25    28    1
     6    25    24    1
     7    25    26    1
     8    25    27    2
     9     6    11    1
    10     6    12    1
    11    29    36    1
    12    29    37    1
    13     7     9    1
    14     7    13    1
    15     8    10    1
    16     8    14    1
    17     4     5    1
    18    28    36    1
    19    30    33    1
    20    30    38    1
    21    31    34    1
    22    31    39    1
    23    32    35    1
    24    32    40    1
    25    41    43   ar
    26    15    19    2
    27    42    43   ar
    28    16    22    2
    29    17    12    1
    30    17    19   ar
    31    17    20   ar
    32    18    19   ar
    33    18    22   ar
    34    18    23    1
    35     9    10    1
    36     9    11    1
    37    10    12    1
    38    11     5    1
    39    33    34    1
    40    33    35    1
    41    34    36    1
    42    35    37    1
    43    37    43    1
    44    20    21   ar
    45    21    22   ar
@<TRIPOS>MOLECULE
UDP-glaA
 43 45 0 0 0
SMALL
GASTEIGER

@<TRIPOS>ATOM
      1 P          22.7386   73.5443   -4.1108 P.3     1  UNL1        0.2189
      2 O          23.0238   74.5443   -5.3502 O.3     1  UNL1       -0.4371
      3 O          23.7244   72.4226   -3.9628 O.2     1  UNL1       -0.5170
      4 O          21.1962   73.1024   -4.3136 O.3     1  UNL1       -0.3112
      5 C          20.7632   71.8759   -3.7502 C.3     1  UNL1        0.1811
      6 O          18.6265   72.2446   -4.7860 O.3     1  UNL1       -0.3308
      7 O          17.4401   70.8872   -2.3900 O.3     1  UNL1       -0.3794
      8 O          17.4029   68.9139   -4.2715 O.3     1  UNL1       -0.3779
      9 C          18.6639   70.6108   -3.0709 C.3     1  UNL1        0.1713
     10 C          18.3866   69.9208   -4.3899 C.3     1  UNL1        0.1895
     11 C          19.2592   71.9373   -3.5241 C.3     1  UNL1        0.1764
     12 C          17.9346   71.0789   -5.2632 C.3     1  UNL1        0.2383
     13 H          17.6646   71.3628   -1.5720 H       1  UNL1        0.2105
     14 H          17.7208   68.2699   -3.6154 H       1  UNL1        0.2106
     15 O          16.0424   70.4606   -7.2663 O.2     1  UNL1       -0.2464
     16 O          19.2809   70.3326  -10.5427 O.2     1  UNL1       -0.2670
     17 N          18.2554   70.8793   -6.6476 N.ar    1  UNL1       -0.2551
     18 N          17.6564   70.3967   -8.8964 N.ar    1  UNL1       -0.2743
     19 C          17.2308   70.5717   -7.5730 C.ar    1  UNL1        0.3323
     20 C          19.5736   70.9886   -7.0764 C.ar    1  UNL1        0.0869
     21 C          19.9632   70.8194   -8.3419 C.ar    1  UNL1        0.0795
     22 C          18.9553   70.4949   -9.3707 C.ar    1  UNL1        0.2626
     23 H          16.9368   70.1743   -9.5790 H       1  UNL1        0.1734
     24 O          22.6653   74.5480   -2.8449 O.3     1  UNL1       -0.2703
     25 P          23.8246   75.1095   -1.8685 P.3     1  UNL1        0.2208
     26 O          23.9275   73.9726   -0.7226 O.3     1  UNL1       -0.4371
     27 O          23.5725   76.4950   -1.3464 O.2     1  UNL1       -0.5170
     28 O          25.1865   74.9555   -2.7201 O.3     1  UNL1       -0.2858
     29 O          27.0585   76.2266   -2.0277 O.3     1  UNL1       -0.3226
     30 O          28.2033   74.9890   -5.8273 O.3     1  UNL1       -0.3794
     31 O          25.4672   75.8586   -5.3140 O.3     1  UNL1       -0.3775
     32 O          29.3982   76.2670   -3.6899 O.3     1  UNL1       -0.3792
     33 C          27.5785   74.9301   -4.5481 C.3     1  UNL1        0.1718
     34 C          26.5458   76.0533   -4.4055 C.3     1  UNL1        0.1968
     35 C          28.6529   75.0658   -3.4656 C.3     1  UNL1        0.1723
     36 C          25.9930   76.1046   -2.9757 C.3     1  UNL1        0.2706
     37 C          27.9902   75.1479   -2.0922 C.3     1  UNL1        0.1830
     38 H          28.8490   74.2633   -5.8721 H       1  UNL1        0.2105
     39 H          24.8365   76.5861   -5.1808 H       1  UNL1        0.2106
     40 H          28.8450   77.0255   -3.4373 H       1  UNL1        0.2106
     41 O          29.0956   76.7398   -0.7702 O.co2   1  UNL1       -0.5466
     42 O          29.6359   74.5515   -0.4292 O.co2   1  UNL1       -0.5466
     43 C          28.9939   75.4112   -1.0151 C.2     1  UNL1        0.0799
@<TRIPOS>UNITY_ATOM_ATTR
41 1
charge -1
@<TRIPOS>BOND
     1     1     4    1
     2     1    24    1
     3     1     2    1
     4     1     3    2
     5    25    28    1
     6    25    24    1
     7    25    26    1
     8    25    27    2
     9     6    11    1
    10     6    12    1
    11    29    36    1
    12    29    37    1
    13     7     9    1
    14     7    13    1
    15     8    10    1
    16     8    14    1
    17     4     5    1
    18    28    36    1
    19    30    33    1
    20    30    38    1
    21    31    34    1
    22    31    39    1
    23    32    35    1
    24    32    40    1
    25    41    43   ar
    26    15    19    2
    27    42    43   ar
    28    16    22    2
    29    17    12    1
    30    17    19   ar
    31    17    20   ar
    32    18    19   ar
    33    18    22   ar
    34    18    23    1
    35     9    10    1
    36     9    11    1
    37    10    12    1
    38    11     5    1
    39    33    34    1
    40    33    35    1
    41    34    36    1
    42    35    37    1
    43    37    43    1
    44    20    21   ar
    45    21    22   ar
@<TRIPOS>MOLECULE
UDP-glaA
 43 45 0 0 0
SMALL
GASTEIGER

@<TRIPOS>ATOM
      1 P          22.3787   73.2954   -5.2006 P.3     1  UNL1        0.2189
      2 O          22.8687   74.7379   -5.7450 O.3     1  UNL1       -0.4371
      3 O          23.4312   72.4964   -4.4895 O.2     1  UNL1       -0.5170
      4 O          21.7200   72.5919   -6.4994 O.3     1  UNL1       -0.3112
      5 C          20.8878   73.3703   -7.3425 C.3     1  UNL1        0.1811
      6 O          20.0634   71.1539   -7.7693 O.3     1  UNL1       -0.3308
      7 O          18.5392   72.3622  -10.0514 O.3     1  UNL1       -0.3794
      8 O          16.6273   72.1151   -8.1229 O.3     1  UNL1       -0.3779
      9 C          18.8312   72.9139   -8.7676 C.3     1  UNL1        0.1713
     10 C          17.9695   72.2613   -7.7073 C.3     1  UNL1        0.1895
     11 C          20.2284   72.4585   -8.3675 C.3     1  UNL1        0.1764
     12 C          18.6682   70.9268   -7.5098 C.3     1  UNL1        0.2383
     13 H          19.1406   72.7812  -10.6905 H       1  UNL1        0.2105
     14 H          16.2877   73.0021   -8.3331 H       1  UNL1        0.2106
     15 O          16.3239   69.6990   -6.5240 O.2     1  UNL1       -0.2464
     16 O          18.2033   69.0267   -2.3702 O.2     1  UNL1       -0.2670
     17 N          18.5175   70.4213   -6.1752 N.ar    1  UNL1       -0.2551
     18 N          17.2611   69.3655   -4.4560 N.ar    1  UNL1       -0.2743
     19 C          17.2983   69.8231   -5.7798 C.ar    1  UNL1        0.3323
     20 C          19.5710   70.5210   -5.2732 C.ar    1  UNL1        0.0869
     21 C          19.5202   70.0794   -4.0146 C.ar    1  UNL1        0.0795
     22 C          18.2826   69.4426   -3.5220 C.ar    1  UNL1        0.2626
     23 H          16.3942   68.9324   -4.1496 H       1  UNL1        0.1734
     24 O          21.0904   73.6678   -4.2968 O.3     1  UNL1       -0.2703
     25 P          20.9737   74.0964   -2.7427 P.3     1  UNL1        0.2208
     26 O          19.3884   74.3496   -2.5456 O.3     1  UNL1       -0.4371
     27 O          21.8401   75.2615   -2.3584 O.2     1  UNL1       -0.5170
     28 O          21.2761   72.7410   -1.9208 O.3     1  UNL1       -0.2858
     29 O          22.2204   73.2767    0.1817 O.3     1  UNL1       -0.3226
     30 O          22.3174   69.1211    0.2166 O.3     1  UNL1       -0.3794
     31 O          22.9942   70.5987   -2.2051 O.3     1  UNL1       -0.3775
     32 O          22.7907   71.1532    2.0267 O.3     1  UNL1       -0.3792
     33 C          21.8394   70.4318   -0.0732 C.3     1  UNL1        0.1718
     34 C          22.8608   71.1979   -0.9206 C.3     1  UNL1        0.1968
     35 C          21.5921   71.1713    1.2446 C.3     1  UNL1        0.1723
     36 C          22.4354   72.6614   -1.0927 C.3     1  UNL1        0.2706
     37 C          21.2158   72.6229    0.9556 C.3     1  UNL1        0.1830
     38 H          21.6418   68.6749    0.7552 H       1  UNL1        0.2105
     39 H          23.6418   71.1217   -2.7070 H       1  UNL1        0.2106
     40 H          23.4264   71.7740    1.6322 H       1  UNL1        0.2106
     41 O          22.0912   73.1089    3.0772 O.co2   1  UNL1       -0.5466
     42 O          20.2130   74.2363    2.4459 O.co2   1  UNL1       -0.5466
     43 C          21.0912   73.4173    2.2167 C.2     1  UNL1        0.0799
@<TRIPOS>UNITY_ATOM_ATTR
41 1
charge -1
@<TRIPOS>BOND
     1     1     4    1
     2     1    24    1
     3     1     2    1
     4     1     3    2
     5    25    28    1
     6    25    24    1
     7    25    26    1
     8    25    27    2
     9     6    11    1
    10     6    12    1
    11    29    36    1
    12    29    37    1
    13     7     9    1
    14     7    13    1
    15     8    10    1
    16     8    14    1
    17     4     5    1
    18    28    36    1
    19    30    33    1
    20    30    38    1
    21    31    34    1
    22    31    39    1
    23    32    35    1
    24    32    40    1
    25    41    43   ar
    26    15    19    2
    27    42    43   ar
    28    16    22    2
    29    17    12    1
    30    17    19   ar
    31    17    20   ar
    32    18    19   ar
    33    18    22   ar
    34    18    23    1
    35     9    10    1
    36     9    11    1
    37    10    12    1
    38    11     5    1
    39    33    34    1
    40    33    35    1
    41    34    36    1
    42    35    37    1
    43    37    43    1
    44    20    21   ar
    45    21    22   ar
@<TRIPOS>MOLECULE
UDP-glaA
 43 45 0 0 0
SMALL
GASTEIGER

@<TRIPOS>ATOM
      1 P          22.5941   74.5116   -5.6342 P.3     1  UNL1        0.2189
      2 O          21.1050   75.0408   -5.2877 O.3     1  UNL1       -0.4371
      3 O          23.5564   75.5745   -6.0771 O.2     1  UNL1       -0.5170
      4 O          22.3451   73.3071   -6.6842 O.3     1  UNL1       -0.3112
      5 C          21.1577   73.3178   -7.4583 C.3     1  UNL1        0.1811
      6 O          19.1883   72.0192   -7.0005 O.3     1  UNL1       -0.3308
      7 O          20.4332   69.8794   -8.6925 O.3     1  UNL1       -0.3794
      8 O          18.6300   71.0118  -10.3960 O.3     1  UNL1       -0.3779
      9 C          20.4832   71.2975   -8.8484 C.3     1  UNL1        0.1713
     10 C          19.1564   71.8165   -9.3611 C.3     1  UNL1        0.1895
     11 C          20.5543   71.9204   -7.4605 C.3     1  UNL1        0.1764
     12 C          18.3002   71.7883   -8.1065 C.3     1  UNL1        0.2383
     13 H          21.2888   69.5978   -8.3262 H       1  UNL1        0.2105
     14 H          19.2848   70.9944  -11.1150 H       1  UNL1        0.2106
     15 O          15.9687   71.7236   -6.5142 O.2     1  UNL1       -0.2464
     16 O          14.4780   75.7408   -8.2108 O.2     1  UNL1       -0.2670
     17 N          17.2865   72.8040   -8.1116 N.ar    1  UNL1       -0.2551
     18 N          15.2277   73.7238   -7.3605 N.ar    1  UNL1       -0.2743
     19 C          16.1536   72.6757   -7.2744 C.ar    1  UNL1        0.3323
     20 C          17.4202   73.9126   -8.9402 C.ar    1  UNL1        0.0869
     21 C          16.5289   74.9037   -9.0104 C.ar    1  UNL1        0.0795
     22 C          15.3169   74.8461   -8.1693 C.ar    1  UNL1        0.2626
     23 H          14.4049   73.6525   -6.7679 H       1  UNL1        0.1734
     24 O          23.0252   73.7330   -4.2840 O.3     1  UNL1       -0.2703
     25 P          22.2916   72.5505   -3.4617 P.3     1  UNL1        0.2208
     26 O          23.4427   71.4221   -3.3282 O.3     1  UNL1       -0.4371
     27 O          21.0162   72.0641   -4.0883 O.2     1  UNL1       -0.5170
     28 O          22.1193   73.1369   -1.9683 O.3     1  UNL1       -0.2858
     29 O          21.3792   71.3711   -0.5777 O.3     1  UNL1       -0.3226
     30 O          21.5657   74.5574    2.0854 O.3     1  UNL1       -0.3794
     31 O          20.5279   74.9407   -0.6131 O.3     1  UNL1       -0.3775
     32 O          21.1599   71.8299    2.2472 O.3     1  UNL1       -0.3792
     33 C          21.9197   73.7376    0.9750 C.3     1  UNL1        0.1718
     34 C          20.7618   73.6649   -0.0262 C.3     1  UNL1        0.1968
     35 C          22.2609   72.3345    1.4842 C.3     1  UNL1        0.1723
     36 C          21.0666   72.6514   -1.1363 C.3     1  UNL1        0.2706
     37 C          22.5047   71.4035    0.2985 C.3     1  UNL1        0.1830
     38 H          22.3250   74.5727    2.6927 H       1  UNL1        0.2105
     39 H          19.7953   74.8432   -1.2445 H       1  UNL1        0.2106
     40 H          20.4443   71.5891    1.6348 H       1  UNL1        0.2106
     41 O          23.4135   69.9557    1.9054 O.co2   1  UNL1       -0.5466
     42 O          22.3107   69.0012    0.1533 O.co2   1  UNL1       -0.5466
     43 C          22.7143   69.9917    0.7455 C.2     1  UNL1        0.0799
@<TRIPOS>UNITY_ATOM_ATTR
41 1
charge -1
@<TRIPOS>BOND
     1     1     4    1
     2     1    24    1
     3     1     2    1
     4     1     3    2
     5    25    28    1
     6    25    24    1
     7    25    26    1
     8    25    27    2
     9     6    11    1
    10     6    12    1
    11    29    36    1
    12    29    37    1
    13     7     9    1
    14     7    13    1
    15     8    10    1
    16     8    14    1
    17     4     5    1
    18    28    36    1
    19    30    33    1
    20    30    38    1
    21    31    34    1
    22    31    39    1
    23    32    35    1
    24    32    40    1
    25    41    43   ar
    26    15    19    2
    27    42    43   ar
    28    16    22    2
    29    17    12    1
    30    17    19   ar
    31    17    20   ar
    32    18    19   ar
    33    18    22   ar
    34    18    23    1
    35     9    10    1
    36     9    11    1
    37    10    12    1
    38    11     5    1
    39    33    34    1
    40    33    35    1
    41    34    36    1
    42    35    37    1
    43    37    43    1
    44    20    21   ar
    45    21    22   ar
@<TRIPOS>MOLECULE
UDP-glaA
 43 45 0 0 0
SMALL
GASTEIGER

@<TRIPOS>ATOM
      1 P          22.5256   73.2649   -4.4880 P.3     1  UNL1        0.2189
      2 O          22.7898   73.7767   -5.9998 O.3     1  UNL1       -0.4371
      3 O          23.4547   72.1862   -4.0134 O.2     1  UNL1       -0.5170
      4 O          20.9515   72.8942   -4.4716 O.3     1  UNL1       -0.3112
      5 C          20.5170   71.8198   -3.6553 C.3     1  UNL1        0.1811
      6 O          18.4374   72.2300   -4.7873 O.3     1  UNL1       -0.3308
      7 O          17.1216   70.8432   -2.4771 O.3     1  UNL1       -0.3794
      8 O          17.1570   68.9041   -4.3939 O.3     1  UNL1       -0.3779
      9 C          18.3745   70.5657   -3.1025 C.3     1  UNL1        0.1713
     10 C          18.1553   69.9022   -4.4458 C.3     1  UNL1        0.1895
     11 C          19.0045   71.8935   -3.5018 C.3     1  UNL1        0.1764
     12 C          17.7582   71.0805   -5.3188 C.3     1  UNL1        0.2383
     13 H          17.3106   71.3017   -1.6406 H       1  UNL1        0.2105
     14 H          17.4359   68.2452   -3.7349 H       1  UNL1        0.2106
     15 O          15.9698   70.4481   -7.4110 O.2     1  UNL1       -0.2464
     16 O          19.3535   70.4170  -10.5396 O.2     1  UNL1       -0.2670
     17 N          18.1444   70.9020   -6.6893 N.ar    1  UNL1       -0.2551
     18 N          17.6560   70.4325   -8.9674 N.ar    1  UNL1       -0.2743
     19 C          17.1684   70.5850   -7.6628 C.ar    1  UNL1        0.3323
     20 C          19.4780   71.0408   -7.0574 C.ar    1  UNL1        0.0869
     21 C          19.9271   70.8928   -8.3057 C.ar    1  UNL1        0.0795
     22 C          18.9727   70.5604   -9.3819 C.ar    1  UNL1        0.2626
     23 H          16.9722   70.2039   -9.6839 H       1  UNL1        0.1734
     24 O          22.5856   74.6324   -3.6268 O.3     1  UNL1       -0.2703
     25 P          22.2678   74.9185   -2.0681 P.3     1  UNL1        0.2208
     26 O          20.7789   75.5495   -2.1026 O.3     1  UNL1       -0.4371
     27 O          23.2892   75.7772   -1.3787 O.2     1  UNL1       -0.5170
     28 O          22.0763   73.4556   -1.4145 O.3     1  UNL1       -0.2858
     29 O          22.8945   73.5881    0.8020 O.3     1  UNL1       -0.3226
     30 O          21.5978   69.6445    0.5864 O.3     1  UNL1       -0.3794
     31 O          23.0040   70.8666   -1.6575 O.3     1  UNL1       -0.3775
     32 O          22.5072   71.3514    2.5586 O.3     1  UNL1       -0.3792
     33 C          21.6205   71.0464    0.3325 C.3     1  UNL1        0.1718
     34 C          22.9297   71.4434   -0.3580 C.3     1  UNL1        0.1968
     35 C          21.4823   71.7928    1.6622 C.3     1  UNL1        0.1723
     36 C          23.0386   72.9684   -0.4803 C.3     1  UNL1        0.2706
     37 C          21.6469   73.2929    1.4282 C.3     1  UNL1        0.1830
     38 H          20.7546   69.4395    1.0251 H       1  UNL1        0.2105
     39 H          23.8423   71.1526   -2.0579 H       1  UNL1        0.2106
     40 H          23.3545   71.7306    2.2698 H       1  UNL1        0.2106
     41 O          20.7919   73.4888    3.6041 O.co2   1  UNL1       -0.5466
     42 O          22.3283   75.0404    2.9487 O.co2   1  UNL1       -0.5466
     43 C          21.6485   74.0510    2.7175 C.2     1  UNL1        0.0799
@<TRIPOS>UNITY_ATOM_ATTR
41 1
charge -1
@<TRIPOS>BOND
     1     1     4    1
     2     1    24    1
     3     1     2    1
     4     1     3    2
     5    25    28    1
     6    25    24    1
     7    25    26    1
     8    25    27    2
     9     6    11    1
    10     6    12    1
    11    29    36    1
    12    29    37    1
    13     7     9    1
    14     7    13    1
    15     8    10    1
    16     8    14    1
    17     4     5    1
    18    28    36    1
    19    30    33    1
    20    30    38    1
    21    31    34    1
    22    31    39    1
    23    32    35    1
    24    32    40    1
    25    41    43   ar
    26    15    19    2
    27    42    43   ar
    28    16    22    2
    29    17    12    1
    30    17    19   ar
    31    17    20   ar
    32    18    19   ar
    33    18    22   ar
    34    18    23    1
    35     9    10    1
    36     9    11    1
    37    10    12    1
    38    11     5    1
    39    33    34    1
    40    33    35    1
    41    34    36    1
    42    35    37    1
    43    37    43    1
    44    20    21   ar
    45    21    22   ar
@<TRIPOS>MOLECULE
UDP-glaA
 43 45 0 0 0
SMALL
GASTEIGER

@<TRIPOS>ATOM
      1 P          22.6206   72.7821   -4.1587 P.3     1  UNL1        0.2189
      2 O          22.8364   73.0637   -5.7372 O.3     1  UNL1       -0.4371
      3 O          23.4719   71.6853   -3.5892 O.2     1  UNL1       -0.5170
      4 O          21.0227   72.5787   -4.0140 O.3     1  UNL1       -0.3112
      5 C          20.4622   71.3310   -4.3860 C.3     1  UNL1        0.1811
      6 O          18.2264   71.8490   -3.6738 O.3     1  UNL1       -0.3308
      7 O          18.2230   69.1562   -2.3546 O.3     1  UNL1       -0.3794
      8 O          16.8076   68.7012   -4.6406 O.3     1  UNL1       -0.3779
      9 C          18.8235   69.5581   -3.5857 C.3     1  UNL1        0.1713
     10 C          17.7640   69.7408   -4.6518 C.3     1  UNL1        0.1895
     11 C          19.3481   70.9772   -3.4112 C.3     1  UNL1        0.1764
     12 C          17.1677   71.0869   -4.2770 C.3     1  UNL1        0.2383
     13 H          18.9333   69.0899   -1.6938 H       1  UNL1        0.2105
     14 H          17.2834   67.8643   -4.7793 H       1  UNL1        0.2106
     15 O          15.2973   73.1985   -4.1419 O.2     1  UNL1       -0.2464
     16 O          15.3211   73.7558   -8.7166 O.2     1  UNL1       -0.2670
     17 N          16.6683   71.8018   -5.4167 N.ar    1  UNL1       -0.2551
     18 N          15.3100   73.4742   -6.4201 N.ar    1  UNL1       -0.2743
     19 C          15.7301   72.8456   -5.2405 C.ar    1  UNL1        0.3323
     20 C          17.1080   71.4664   -6.6925 C.ar    1  UNL1        0.0869
     21 C          16.6982   72.0756   -7.8073 C.ar    1  UNL1        0.0795
     22 C          15.7184   73.1757   -7.7108 C.ar    1  UNL1        0.2626
     23 H          14.6351   74.2273   -6.3176 H       1  UNL1        0.1734
     24 O          22.8630   74.2366   -3.4947 O.3     1  UNL1       -0.2703
     25 P          23.9282   74.7308   -2.3840 P.3     1  UNL1        0.2208
     26 O          23.4006   76.2097   -1.9960 O.3     1  UNL1       -0.4371
     27 O          25.3590   74.6823   -2.8381 O.2     1  UNL1       -0.5170
     28 O          23.6107   73.8297   -1.0835 O.3     1  UNL1       -0.2858
     29 O          21.9056   72.2426   -0.6676 O.3     1  UNL1       -0.3226
     30 O          22.4317   73.9584    3.0818 O.3     1  UNL1       -0.3794
     31 O          22.4538   75.6119    0.6795 O.3     1  UNL1       -0.3775
     32 O          21.0392   71.8147    2.0352 O.3     1  UNL1       -0.3792
     33 C          22.7778   73.4733    1.7876 C.3     1  UNL1        0.1718
     34 C          22.0253   74.2545    0.7051 C.3     1  UNL1        0.1968
     35 C          22.4212   71.9866    1.7042 C.3     1  UNL1        0.1723
     36 C          22.2578   73.6299   -0.6763 C.3     1  UNL1        0.2706
     37 C          22.6521   71.4824    0.2814 C.3     1  UNL1        0.1830
     38 H          22.9281   73.4349    3.7338 H       1  UNL1        0.2105
     39 H          21.9584   76.0627   -0.0250 H       1  UNL1        0.2106
     40 H          20.5014   72.1322    1.2901 H       1  UNL1        0.2106
     41 O          20.9306   70.0258   -0.3655 O.co2   1  UNL1       -0.5466
     42 O          22.8633   69.0795    0.3870 O.co2   1  UNL1       -0.5466
     43 C          22.1944   70.0676    0.1211 C.2     1  UNL1        0.0799
@<TRIPOS>UNITY_ATOM_ATTR
41 1
charge -1
@<TRIPOS>BOND
     1     1     4    1
     2     1    24    1
     3     1     2    1
     4     1     3    2
     5    25    28    1
     6    25    24    1
     7    25    26    1
     8    25    27    2
     9     6    11    1
    10     6    12    1
    11    29    36    1
    12    29    37    1
    13     7     9    1
    14     7    13    1
    15     8    10    1
    16     8    14    1
    17     4     5    1
    18    28    36    1
    19    30    33    1
    20    30    38    1
    21    31    34    1
    22    31    39    1
    23    32    35    1
    24    32    40    1
    25    41    43   ar
    26    15    19    2
    27    42    43   ar
    28    16    22    2
    29    17    12    1
    30    17    19   ar
    31    17    20   ar
    32    18    19   ar
    33    18    22   ar
    34    18    23    1
    35     9    10    1
    36     9    11    1
    37    10    12    1
    38    11     5    1
    39    33    34    1
    40    33    35    1
    41    34    36    1
    42    35    37    1
    43    37    43    1
    44    20    21   ar
    45    21    22   ar
@<TRIPOS>MOLECULE
UDP-glaA
 43 45 0 0 0
SMALL
GASTEIGER

@<TRIPOS>ATOM
      1 P          19.3453   70.9837   -4.1874 P.3     1  UNL1        0.2189
      2 O          19.2677   69.4004   -4.5107 O.3     1  UNL1       -0.4371
      3 O          18.4852   71.4394   -3.0451 O.2     1  UNL1       -0.5170
      4 O          19.0507   71.6875   -5.6134 O.3     1  UNL1       -0.3112
      5 C          19.7031   71.1821   -6.7659 C.3     1  UNL1        0.1811
      6 O          17.4330   71.4944   -7.4894 O.3     1  UNL1       -0.3308
      7 O          18.3094   70.3449  -10.1166 O.3     1  UNL1       -0.3794
      8 O          18.2663   73.0240  -10.6233 O.3     1  UNL1       -0.3779
      9 C          19.0252   71.1915   -9.2173 C.3     1  UNL1        0.1713
     10 C          18.4932   72.6071   -9.2928 C.3     1  UNL1        0.1895
     11 C          18.6549   70.7872   -7.7964 C.3     1  UNL1        0.1764
     12 C          17.2101   72.5057   -8.4858 C.3     1  UNL1        0.2383
     13 H          18.6572   69.4438  -10.0052 H       1  UNL1        0.2105
     14 H          19.1119   72.9566  -11.0994 H       1  UNL1        0.2106
     15 O          14.6612   73.7179   -8.5794 O.2     1  UNL1       -0.2464
     16 O          16.0372   77.2390   -5.9437 O.2     1  UNL1       -0.2670
     17 N          16.8743   73.7387   -7.8329 N.ar    1  UNL1       -0.2551
     18 N          15.3482   75.4708   -7.2673 N.ar    1  UNL1       -0.2743
     19 C          15.5651   74.2628   -7.9432 C.ar    1  UNL1        0.3323
     20 C          17.8372   74.4160   -7.0931 C.ar    1  UNL1        0.0869
     21 C          17.6147   75.5666   -6.4540 C.ar    1  UNL1        0.0795
     22 C          16.2741   76.1816   -6.5195 C.ar    1  UNL1        0.2626
     23 H          14.4143   75.8665   -7.3331 H       1  UNL1        0.1734
     24 O          20.9294   71.2338   -3.9794 O.3     1  UNL1       -0.2703
     25 P          21.7688   72.5993   -3.7709 P.3     1  UNL1        0.2208
     26 O          20.6835   73.7547   -4.0921 O.3     1  UNL1       -0.4371
     27 O          23.0239   72.6822   -4.5916 O.2     1  UNL1       -0.5170
     28 O          22.0066   72.6938   -2.1776 O.3     1  UNL1       -0.2858
     29 O          21.4070   71.0932   -0.5411 O.3     1  UNL1       -0.3226
     30 O          21.2690   74.6417    1.6196 O.3     1  UNL1       -0.3794
     31 O          20.2406   74.5264   -1.1072 O.3     1  UNL1       -0.3775
     32 O          21.1063   71.9427    2.1840 O.3     1  UNL1       -0.3792
     33 C          21.7110   73.7023    0.6436 C.3     1  UNL1        0.1718
     34 C          20.5791   73.3778   -0.3371 C.3     1  UNL1        0.1968
     35 C          22.1688   72.4266    1.3559 C.3     1  UNL1        0.1723
     36 C          20.9894   72.2433   -1.2841 C.3     1  UNL1        0.2706
     37 C          22.5122   71.3565    0.3219 C.3     1  UNL1        0.1830
     38 H          22.0149   74.8152    2.2187 H       1  UNL1        0.2105
     39 H          19.5290   74.2708   -1.7180 H       1  UNL1        0.2106
     40 H          20.4242   71.5501    1.6133 H       1  UNL1        0.2106
     41 O          22.3398   69.0178    0.2545 O.co2   1  UNL1       -0.5466
     42 O          23.4756   69.9249    2.0107 O.co2   1  UNL1       -0.5466
     43 C          22.8406   70.0511    0.9737 C.2     1  UNL1        0.0799
@<TRIPOS>UNITY_ATOM_ATTR
41 1
charge -1
@<TRIPOS>BOND
     1     1     4    1
     2     1    24    1
     3     1     2    1
     4     1     3    2
     5    25    28    1
     6    25    24    1
     7    25    26    1
     8    25    27    2
     9     6    11    1
    10     6    12    1
    11    29    36    1
    12    29    37    1
    13     7     9    1
    14     7    13    1
    15     8    10    1
    16     8    14    1
    17     4     5    1
    18    28    36    1
    19    30    33    1
    20    30    38    1
    21    31    34    1
    22    31    39    1
    23    32    35    1
    24    32    40    1
    25    41    43   ar
    26    15    19    2
    27    42    43   ar
    28    16    22    2
    29    17    12    1
    30    17    19   ar
    31    17    20   ar
    32    18    19   ar
    33    18    22   ar
    34    18    23    1
    35     9    10    1
    36     9    11    1
    37    10    12    1
    38    11     5    1
    39    33    34    1
    40    33    35    1
    41    34    36    1
    42    35    37    1
    43    37    43    1
    44    20    21   ar
    45    21    22   ar
@<TRIPOS>MOLECULE
UDP-glaA
 43 45 0 0 0
SMALL
GASTEIGER

@<TRIPOS>ATOM
      1 P          21.5790   73.3079   -5.8023 P.3     1  UNL1        0.2189
      2 O          21.0143   74.7695   -6.2048 O.3     1  UNL1       -0.4371
      3 O          22.6695   72.7840   -6.6902 O.2     1  UNL1       -0.5170
      4 O          20.2508   72.3904   -5.7042 O.3     1  UNL1       -0.3112
      5 C          20.3528   71.1133   -5.0978 C.3     1  UNL1        0.1811
      6 O          18.2606   71.9670   -4.2804 O.3     1  UNL1       -0.3308
      7 O          18.0641   69.4349   -2.6864 O.3     1  UNL1       -0.3794
      8 O          16.4139   68.9378   -4.7996 O.3     1  UNL1       -0.3779
      9 C          18.5979   69.6396   -3.9944 C.3     1  UNL1        0.1713
     10 C          17.4780   69.8467   -4.9921 C.3     1  UNL1        0.1895
     11 C          19.2941   70.9941   -4.0109 C.3     1  UNL1        0.1764
     12 C          17.0738   71.2855   -4.7190 C.3     1  UNL1        0.2383
     13 H          18.8166   69.3463   -2.0768 H       1  UNL1        0.2105
     14 H          16.7774   68.0395   -4.8837 H       1  UNL1        0.2106
     15 O          17.5983   70.4635   -7.3694 O.2     1  UNL1       -0.2464
     16 O          15.0604   73.8854   -9.1268 O.2     1  UNL1       -0.2670
     17 N          16.5627   71.9426   -5.8878 N.ar    1  UNL1       -0.2551
     18 N          16.3346   72.1683   -8.2428 N.ar    1  UNL1       -0.2743
     19 C          16.8864   71.4502   -7.1737 C.ar    1  UNL1        0.3323
     20 C          15.7499   73.0628   -5.7535 C.ar    1  UNL1        0.0869
     21 C          15.2311   73.7362   -6.7827 C.ar    1  UNL1        0.0795
     22 C          15.5214   73.2879   -8.1591 C.ar    1  UNL1        0.2626
     23 H          16.5544   71.8327   -9.1766 H       1  UNL1        0.1734
     24 O          22.0043   73.4976   -4.2536 O.3     1  UNL1       -0.2703
     25 P          23.2191   72.8566   -3.4016 P.3     1  UNL1        0.2208
     26 O          24.4949   73.7448   -3.8483 O.3     1  UNL1       -0.4371
     27 O          23.3946   71.3777   -3.5960 O.2     1  UNL1       -0.5170
     28 O          22.9273   73.2986   -1.8773 O.3     1  UNL1       -0.2858
     29 O          21.6396   72.1100   -0.2872 O.3     1  UNL1       -0.3226
     30 O          21.2376   76.0340    1.0243 O.3     1  UNL1       -0.3794
     31 O          21.1449   75.4064   -1.8224 O.3     1  UNL1       -0.3775
     32 O          20.5750   73.5253    1.9716 O.3     1  UNL1       -0.3792
     33 C          21.8556   74.8890    0.4434 C.3     1  UNL1        0.1718
     34 C          21.0732   74.4278   -0.7908 C.3     1  UNL1        0.1968
     35 C          21.8992   73.7678    1.4852 C.3     1  UNL1        0.1723
     36 C          21.6284   73.1000   -1.3210 C.3     1  UNL1        0.2706
     37 C          22.4277   72.4883    0.8403 C.3     1  UNL1        0.1830
     38 H          21.7636   76.2887    1.8014 H       1  UNL1        0.2105
     39 H          20.6449   75.0672   -2.5838 H       1  UNL1        0.2106
     40 H          20.0731   73.0592    1.2817 H       1  UNL1        0.2106
     41 O          22.0291   70.1950    1.1327 O.co2   1  UNL1       -0.5466
     42 O          22.5904   71.3958    2.9874 O.co2   1  UNL1       -0.5466
     43 C          22.3660   71.3323    1.7873 C.2     1  UNL1        0.0799
@<TRIPOS>UNITY_ATOM_ATTR
41 1
charge -1
@<TRIPOS>BOND
     1     1     4    1
     2     1    24    1
     3     1     2    1
     4     1     3    2
     5    25    28    1
     6    25    24    1
     7    25    26    1
     8    25    27    2
     9     6    11    1
    10     6    12    1
    11    29    36    1
    12    29    37    1
    13     7     9    1
    14     7    13    1
    15     8    10    1
    16     8    14    1
    17     4     5    1
    18    28    36    1
    19    30    33    1
    20    30    38    1
    21    31    34    1
    22    31    39    1
    23    32    35    1
    24    32    40    1
    25    41    43   ar
    26    15    19    2
    27    42    43   ar
    28    16    22    2
    29    17    12    1
    30    17    19   ar
    31    17    20   ar
    32    18    19   ar
    33    18    22   ar
    34    18    23    1
    35     9    10    1
    36     9    11    1
    37    10    12    1
    38    11     5    1
    39    33    34    1
    40    33    35    1
    41    34    36    1
    42    35    37    1
    43    37    43    1
    44    20    21   ar
    45    21    22   ar
@<TRIPOS>MOLECULE
UDP-glaA
 43 45 0 0 0
SMALL
GASTEIGER

@<TRIPOS>ATOM
      1 P          21.5120   73.4587   -5.4748 P.3     1  UNL1        0.2189
      2 O          21.3153   75.0074   -5.8994 O.3     1  UNL1       -0.4371
      3 O          22.5937   72.7311   -6.2181 O.2     1  UNL1       -0.5170
      4 O          20.0276   72.8289   -5.5993 O.3     1  UNL1       -0.3112
      5 C          19.8390   71.4663   -5.2572 C.3     1  UNL1        0.1811
      6 O          17.6018   72.3408   -5.1892 O.3     1  UNL1       -0.3308
      7 O          16.7910   69.6696   -4.0944 O.3     1  UNL1       -0.3794
      8 O          16.0584   69.4866   -6.7146 O.3     1  UNL1       -0.3779
      9 C          17.7822   69.9815   -5.0732 C.3     1  UNL1        0.1713
     10 C          17.1254   70.3521   -6.3861 C.3     1  UNL1        0.1895
     11 C          18.4464   71.2909   -4.6683 C.3     1  UNL1        0.1764
     12 C          16.6624   71.7739   -6.1173 C.3     1  UNL1        0.2383
     13 H          17.2559   69.4773   -3.2622 H       1  UNL1        0.2105
     14 H          16.4175   68.5838   -6.7613 H       1  UNL1        0.2106
     15 O          18.5378   71.5692   -8.2188 O.2     1  UNL1       -0.2464
     16 O          16.4723   74.9081  -10.6321 O.2     1  UNL1       -0.2670
     17 N          16.6383   72.5766   -7.3066 N.ar    1  UNL1       -0.2551
     18 N          17.5083   73.2323   -9.4189 N.ar    1  UNL1       -0.2743
     19 C          17.6273   72.3954   -8.3015 C.ar    1  UNL1        0.3323
     20 C          15.6422   73.5315   -7.4782 C.ar    1  UNL1        0.0869
     21 C          15.5421   74.3214   -8.5496 C.ar    1  UNL1        0.0795
     22 C          16.5359   74.1965   -9.6343 C.ar    1  UNL1        0.2626
     23 H          18.2089   73.1201  -10.1468 H       1  UNL1        0.1734
     24 O          21.7360   73.5471   -3.8757 O.3     1  UNL1       -0.2703
     25 P          21.0741   74.5164   -2.7643 P.3     1  UNL1        0.2208
     26 O          19.5062   74.1224   -2.8148 O.3     1  UNL1       -0.4371
     27 O          21.3535   75.9768   -2.9758 O.2     1  UNL1       -0.5170
     28 O          21.5959   73.9354   -1.3522 O.3     1  UNL1       -0.2858
     29 O          21.0860   71.8414   -0.3752 O.3     1  UNL1       -0.3226
     30 O          21.7777   74.2159    2.9658 O.3     1  UNL1       -0.3794
     31 O          20.2901   75.2630    0.6863 O.3     1  UNL1       -0.3775
     32 O          21.3694   71.5304    2.4641 O.3     1  UNL1       -0.3792
     33 C          21.9213   73.7307    1.6338 C.3     1  UNL1        0.1718
     34 C          20.6056   73.8861    0.8637 C.3     1  UNL1        0.1968
     35 C          22.3271   72.2552    1.6852 C.3     1  UNL1        0.1723
     36 C          20.6980   73.2125   -0.5111 C.3     1  UNL1        0.2706
     37 C          22.3475   71.6790    0.2711 C.3     1  UNL1        0.1830
     38 H          22.6315   74.0957    3.4154 H       1  UNL1        0.2105
     39 H          19.4573   75.3112    0.1874 H       1  UNL1        0.2106
     40 H          20.5547   71.4360    1.9421 H       1  UNL1        0.2106
     41 O          21.4667   69.5163    0.4964 O.co2   1  UNL1       -0.5466
     42 O          23.7087   69.6903    0.1220 O.co2   1  UNL1       -0.5466
     43 C          22.6127   70.2071    0.2837 C.2     1  UNL1        0.0799
@<TRIPOS>UNITY_ATOM_ATTR
41 1
charge -1
@<TRIPOS>BOND
     1     1     4    1
     2     1    24    1
     3     1     2    1
     4     1     3    2
     5    25    28    1
     6    25    24    1
     7    25    26    1
     8    25    27    2
     9     6    11    1
    10     6    12    1
    11    29    36    1
    12    29    37    1
    13     7     9    1
    14     7    13    1
    15     8    10    1
    16     8    14    1
    17     4     5    1
    18    28    36    1
    19    30    33    1
    20    30    38    1
    21    31    34    1
    22    31    39    1
    23    32    35    1
    24    32    40    1
    25    41    43   ar
    26    15    19    2
    27    42    43   ar
    28    16    22    2
    29    17    12    1
    30    17    19   ar
    31    17    20   ar
    32    18    19   ar
    33    18    22   ar
    34    18    23    1
    35     9    10    1
    36     9    11    1
    37    10    12    1
    38    11     5    1
    39    33    34    1
    40    33    35    1
    41    34    36    1
    42    35    37    1
    43    37    43    1
    44    20    21   ar
    45    21    22   ar
@<TRIPOS>MOLECULE
UDP-glaA
 43 45 0 0 0
SMALL
GASTEIGER

@<TRIPOS>ATOM
      1 P          15.6883   73.3421   -4.4993 P.3     1  UNL1        0.2189
      2 O          14.3836   72.5912   -3.9065 O.3     1  UNL1       -0.4371
      3 O          16.1950   74.4829   -3.6663 O.2     1  UNL1       -0.5170
      4 O          15.2693   73.7117   -6.0170 O.3     1  UNL1       -0.3112
      5 C          16.2294   74.3367   -6.8517 C.3     1  UNL1        0.1811
      6 O          14.6962   73.9417   -8.6593 O.3     1  UNL1       -0.3308
      7 O          17.1159   73.7283  -10.4174 O.3     1  UNL1       -0.3794
      8 O          16.2255   76.2534  -10.9337 O.3     1  UNL1       -0.3779
      9 C          16.8863   74.5819   -9.2966 C.3     1  UNL1        0.1713
     10 C          15.9294   75.6941   -9.6708 C.3     1  UNL1        0.1895
     11 C          16.0797   73.8000   -8.2681 C.3     1  UNL1        0.1764
     12 C          14.5895   74.9785   -9.6488 C.3     1  UNL1        0.2383
     13 H          17.7016   73.0111  -10.1204 H       1  UNL1        0.2105
     14 H          17.1368   76.5919  -10.8975 H       1  UNL1        0.2106
     15 O          11.8784   74.1956   -9.5372 O.2     1  UNL1       -0.2464
     16 O          10.5213   78.4170   -8.2816 O.2     1  UNL1       -0.2670
     17 N          13.5072   75.8520   -9.2952 N.ar    1  UNL1       -0.2551
     18 N          11.2043   76.2983   -8.9125 N.ar    1  UNL1       -0.2743
     19 C          12.1814   75.3598   -9.2700 C.ar    1  UNL1        0.3323
     20 C          13.7645   77.1811   -8.9781 C.ar    1  UNL1        0.0869
     21 C          12.8221   78.0634   -8.6387 C.ar    1  UNL1        0.0795
     22 C          11.4115   77.6304   -8.5893 C.ar    1  UNL1        0.2626
     23 H          10.2438   75.9669   -8.8884 H       1  UNL1        0.1734
     24 O          16.7433   72.1327   -4.6981 O.3     1  UNL1       -0.2703
     25 P          17.4270   71.1351   -3.6258 P.3     1  UNL1        0.2208
     26 O          17.4005   69.7047   -4.3803 O.3     1  UNL1       -0.4371
     27 O          16.7683   71.1365   -2.2761 O.2     1  UNL1       -0.5170
     28 O          18.9840   71.5587   -3.6081 O.3     1  UNL1       -0.2858
     29 O          21.0443   71.2807   -4.7384 O.3     1  UNL1       -0.3226
     30 O          21.9630   69.9434   -0.9113 O.3     1  UNL1       -0.3794
     31 O          19.4138   69.2544   -2.1494 O.3     1  UNL1       -0.3775
     32 O          23.3571   70.4942   -3.2315 O.3     1  UNL1       -0.3792
     33 C          21.3373   70.7232   -1.9265 C.3     1  UNL1        0.1718
     34 C          20.5098   69.8274   -2.8546 C.3     1  UNL1        0.1968
     35 C          22.4190   71.4515   -2.7289 C.3     1  UNL1        0.1723
     36 C          19.9736   70.6291   -4.0471 C.3     1  UNL1        0.2706
     37 C          21.7797   72.1794   -3.9094 C.3     1  UNL1        0.1830
     38 H          22.4765   70.5495   -0.3505 H       1  UNL1        0.2105
     39 H          18.9155   68.7052   -2.7778 H       1  UNL1        0.2106
     40 H          22.9404   70.0080   -3.9629 H       1  UNL1        0.2106
     41 O          23.9385   73.0787   -4.0948 O.co2   1  UNL1       -0.5466
     42 O          22.6719   73.0207   -5.9893 O.co2   1  UNL1       -0.5466
     43 C          22.8134   72.7983   -4.7956 C.2     1  UNL1        0.0799
@<TRIPOS>UNITY_ATOM_ATTR
41 1
charge -1
@<TRIPOS>BOND
     1     1     4    1
     2     1    24    1
     3     1     2    1
     4     1     3    2
     5    25    28    1
     6    25    24    1
     7    25    26    1
     8    25    27    2
     9     6    11    1
    10     6    12    1
    11    29    36    1
    12    29    37    1
    13     7     9    1
    14     7    13    1
    15     8    10    1
    16     8    14    1
    17     4     5    1
    18    28    36    1
    19    30    33    1
    20    30    38    1
    21    31    34    1
    22    31    39    1
    23    32    35    1
    24    32    40    1
    25    41    43   ar
    26    15    19    2
    27    42    43   ar
    28    16    22    2
    29    17    12    1
    30    17    19   ar
    31    17    20   ar
    32    18    19   ar
    33    18    22   ar
    34    18    23    1
    35     9    10    1
    36     9    11    1
    37    10    12    1
    38    11     5    1
    39    33    34    1
    40    33    35    1
    41    34    36    1
    42    35    37    1
    43    37    43    1
    44    20    21   ar
    45    21    22   ar
