@<TRIPOS>MOLECULE
UDP-glaA
 43 45 0 0 0
SMALL
GASTEIGER

@<TRIPOS>ATOM
      1 P          22.9852   71.9245   -3.4179 P.3     1  UNL1        0.2189
      2 O          23.7229   72.9276   -4.4508 O.3     1  UNL1       -0.4371
      3 O          23.6762   70.6084   -3.2112 O.2     1  UNL1       -0.5170
      4 O          21.4677   71.8424   -3.9711 O.3     1  UNL1       -0.3112
      5 C          20.6368   70.7881   -3.5157 C.3     1  UNL1        0.1811
      6 O          18.8269   71.9137   -4.6255 O.3     1  UNL1       -0.3308
      7 O          17.0597   70.7909   -2.4789 O.3     1  UNL1       -0.3794
      8 O          16.5857   69.1153   -4.5774 O.3     1  UNL1       -0.3779
      9 C          18.1945   70.2024   -3.1142 C.3     1  UNL1        0.1713
     10 C          17.8403   69.7619   -4.5189 C.3     1  UNL1        0.1895
     11 C          19.2124   71.3053   -3.3732 C.3     1  UNL1        0.1764
     12 C          17.8543   71.0791   -5.2758 C.3     1  UNL1        0.2383
     13 H          17.3439   71.0922   -1.5992 H       1  UNL1        0.2105
     14 H          16.6250   68.3459   -3.9836 H       1  UNL1        0.2106
     15 O          16.0426   70.4627   -7.3526 O.2     1  UNL1       -0.2464
     16 O          19.3879   70.4758  -10.5223 O.2     1  UNL1       -0.2670
     17 N          18.2243   70.9163   -6.6527 N.ar    1  UNL1       -0.2551
     18 N          17.7097   70.4691   -8.9296 N.ar    1  UNL1       -0.2743
     19 C          17.2375   70.6063   -7.6176 C.ar    1  UNL1        0.3323
     20 C          19.5529   71.0635   -7.0355 C.ar    1  UNL1        0.0869
     21 C          19.9872   70.9300   -8.2906 C.ar    1  UNL1        0.0795
     22 C          19.0208   70.6057   -9.3586 C.ar    1  UNL1        0.2626
     23 H          17.0180   70.2457   -9.6400 H       1  UNL1        0.1734
     24 O          22.8367   72.8243   -2.0825 O.3     1  UNL1       -0.2703
     25 P          22.2979   74.3341   -1.8759 P.3     1  UNL1        0.2208
     26 O          20.7920   74.2744   -2.4632 O.3     1  UNL1       -0.4371
     27 O          23.1657   75.3888   -2.5007 O.2     1  UNL1       -0.5170
     28 O          22.1083   74.4859   -0.2806 O.3     1  UNL1       -0.2858
     29 O          21.1151   72.4344    0.3551 O.3     1  UNL1       -0.3226
     30 O          21.7918   74.2508    4.0323 O.3     1  UNL1       -0.3794
     31 O          20.8133   75.8076    1.7685 O.3     1  UNL1       -0.3775
     32 O          20.9788   71.7652    3.1429 O.3     1  UNL1       -0.3792
     33 C          22.0133   73.8962    2.6702 C.3     1  UNL1        0.1718
     34 C          20.8539   74.3848    1.7953 C.3     1  UNL1        0.1968
     35 C          22.1404   72.3737    2.5691 C.3     1  UNL1        0.1723
     36 C          20.9975   73.8610    0.3610 C.3     1  UNL1        0.2706
     37 C          22.2360   71.9630    1.1014 C.3     1  UNL1        0.1830
     38 H          22.5470   73.9203    4.5481 H       1  UNL1        0.2105
     39 H          20.0720   76.0693    1.1969 H       1  UNL1        0.2106
     40 H          20.2326   71.8867    2.5317 H       1  UNL1        0.2106
     41 O          23.2143   69.9143    1.6930 O.co2   1  UNL1       -0.5466
     42 O          21.4497   69.8443    0.2513 O.co2   1  UNL1       -0.5466
     43 C          22.2313   70.4752    0.9480 C.2     1  UNL1        0.0799
@<TRIPOS>UNITY_ATOM_ATTR
41 1
charge -1
@<TRIPOS>BOND
     1     1     4    1
     2     1    24    1
     3     1     2    1
     4     1     3    2
     5    25    28    1
     6    25    24    1
     7    25    26    1
     8    25    27    2
     9     6    11    1
    10     6    12    1
    11    29    36    1
    12    29    37    1
    13     7     9    1
    14     7    13    1
    15     8    10    1
    16     8    14    1
    17     4     5    1
    18    28    36    1
    19    30    33    1
    20    30    38    1
    21    31    34    1
    22    31    39    1
    23    32    35    1
    24    32    40    1
    25    41    43   ar
    26    15    19    2
    27    42    43   ar
    28    16    22    2
    29    17    12    1
    30    17    19   ar
    31    17    20   ar
    32    18    19   ar
    33    18    22   ar
    34    18    23    1
    35     9    10    1
    36     9    11    1
    37    10    12    1
    38    11     5    1
    39    33    34    1
    40    33    35    1
    41    34    36    1
    42    35    37    1
    43    37    43    1
    44    20    21   ar
    45    21    22   ar
@<TRIPOS>MOLECULE
UDP-glaA
 43 45 0 0 0
SMALL
GASTEIGER

@<TRIPOS>ATOM
      1 P          21.6972   73.8648   -5.5373 P.3     1  UNL1        0.2189
      2 O          21.3831   75.0941   -4.5335 O.3     1  UNL1       -0.4371
      3 O          22.8235   74.1053   -6.4995 O.2     1  UNL1       -0.5170
      4 O          20.2624   73.5300   -6.2042 O.3     1  UNL1       -0.3112
      5 C          19.8419   74.2903   -7.3241 C.3     1  UNL1        0.1811
      6 O          19.6101   71.9883   -7.9732 O.3     1  UNL1       -0.3308
      7 O          17.9260   72.9920  -10.2420 O.3     1  UNL1       -0.3794
      8 O          16.0598   72.1121   -8.4591 O.3     1  UNL1       -0.3779
      9 C          18.0208   73.4787   -8.9035 C.3     1  UNL1        0.1713
     10 C          17.3063   72.5421   -7.9522 C.3     1  UNL1        0.1895
     11 C          19.4703   73.3428   -8.4558 C.3     1  UNL1        0.1764
     12 C          18.3056   71.4057   -7.8179 C.3     1  UNL1        0.2383
     13 H          18.4297   73.6012  -10.8083 H       1  UNL1        0.2105
     14 H          15.5197   72.9050   -8.6193 H       1  UNL1        0.2106
     15 O          16.1003   69.8854   -6.9232 O.2     1  UNL1       -0.2464
     16 O          18.1329   68.9725   -2.8892 O.2     1  UNL1       -0.2670
     17 N          18.2319   70.7593   -6.5388 N.ar    1  UNL1       -0.2551
     18 N          17.1137   69.4322   -4.9148 N.ar    1  UNL1       -0.2743
     19 C          17.0786   70.0202   -6.1861 C.ar    1  UNL1        0.3323
     20 C          19.2950   70.8611   -5.6485 C.ar    1  UNL1        0.0869
     21 C          19.3135   70.2943   -4.4401 C.ar    1  UNL1        0.0795
     22 C          18.1476   69.5058   -3.9943 C.ar    1  UNL1        0.2626
     23 H          16.2949   68.8965   -4.6397 H       1  UNL1        0.1734
     24 O          21.9273   72.6225   -4.5280 O.3     1  UNL1       -0.2703
     25 P          23.0993   72.3325   -3.4533 P.3     1  UNL1        0.2208
     26 O          24.3359   73.2170   -4.0052 O.3     1  UNL1       -0.4371
     27 O          23.4145   70.8763   -3.2636 O.2     1  UNL1       -0.5170
     28 O          22.6210   73.0913   -2.1119 O.3     1  UNL1       -0.2858
     29 O          21.6487   71.3771   -0.8021 O.3     1  UNL1       -0.3226
     30 O          21.5213   74.6284    1.7849 O.3     1  UNL1       -0.3794
     31 O          20.8920   74.9600   -1.0436 O.3     1  UNL1       -0.3775
     32 O          21.0351   71.9143    1.9499 O.3     1  UNL1       -0.3792
     33 C          22.0130   73.7731    0.7568 C.3     1  UNL1        0.1718
     34 C          21.0102   73.6959   -0.3994 C.3     1  UNL1        0.1968
     35 C          22.2456   72.3776    1.3426 C.3     1  UNL1        0.1723
     36 C          21.4487   72.6479   -1.4298 C.3     1  UNL1        0.2706
     37 C          22.6367   71.4113    0.2266 C.3     1  UNL1        0.1830
     38 H          22.1854   74.6452    2.4950 H       1  UNL1        0.2105
     39 H          20.2560   74.8598   -1.7718 H       1  UNL1        0.2106
     40 H          20.4100   71.6709    1.2462 H       1  UNL1        0.2106
     41 O          23.4262   69.9739    1.9043 O.co2   1  UNL1       -0.5466
     42 O          22.2897   69.0225    0.1722 O.co2   1  UNL1       -0.5466
     43 C          22.7478   70.0079    0.7320 C.2     1  UNL1        0.0799
@<TRIPOS>UNITY_ATOM_ATTR
41 1
charge -1
@<TRIPOS>BOND
     1     1     4    1
     2     1    24    1
     3     1     2    1
     4     1     3    2
     5    25    28    1
     6    25    24    1
     7    25    26    1
     8    25    27    2
     9     6    11    1
    10     6    12    1
    11    29    36    1
    12    29    37    1
    13     7     9    1
    14     7    13    1
    15     8    10    1
    16     8    14    1
    17     4     5    1
    18    28    36    1
    19    30    33    1
    20    30    38    1
    21    31    34    1
    22    31    39    1
    23    32    35    1
    24    32    40    1
    25    41    43   ar
    26    15    19    2
    27    42    43   ar
    28    16    22    2
    29    17    12    1
    30    17    19   ar
    31    17    20   ar
    32    18    19   ar
    33    18    22   ar
    34    18    23    1
    35     9    10    1
    36     9    11    1
    37    10    12    1
    38    11     5    1
    39    33    34    1
    40    33    35    1
    41    34    36    1
    42    35    37    1
    43    37    43    1
    44    20    21   ar
    45    21    22   ar
@<TRIPOS>MOLECULE
UDP-glaA
 43 45 0 0 0
SMALL
GASTEIGER

@<TRIPOS>ATOM
      1 P          22.6907   71.4759   -2.6489 P.3     1  UNL1        0.2189
      2 O          23.0657   72.9480   -3.2056 O.3     1  UNL1       -0.4371
      3 O          23.4854   70.3519   -3.2465 O.2     1  UNL1       -0.5170
      4 O          21.0876   71.3832   -2.8413 O.3     1  UNL1       -0.3112
      5 C          20.4636   72.2636   -3.7604 C.3     1  UNL1        0.1811
      6 O          18.3282   72.3918   -4.8550 O.3     1  UNL1       -0.3308
      7 O          17.2132   71.0229   -2.4313 O.3     1  UNL1       -0.3794
      8 O          17.4045   68.9839   -4.2316 O.3     1  UNL1       -0.3779
      9 C          18.4737   70.8356   -3.0746 C.3     1  UNL1        0.1713
     10 C          18.2938   70.0727   -4.3701 C.3     1  UNL1        0.1895
     11 C          18.9553   72.1934   -3.5687 C.3     1  UNL1        0.1764
     12 C          17.7587   71.1493   -5.2989 C.3     1  UNL1        0.2383
     13 H          17.3728   71.5484   -1.6287 H       1  UNL1        0.2105
     14 H          17.7640   68.3979   -3.5435 H       1  UNL1        0.2106
     15 O          15.9420   70.4969   -7.3603 O.2     1  UNL1       -0.2464
     16 O          19.2995   70.3179  -10.5121 O.2     1  UNL1       -0.2670
     17 N          18.1305   70.9273   -6.6670 N.ar    1  UNL1       -0.2551
     18 N          17.6152   70.4077   -8.9283 N.ar    1  UNL1       -0.2743
     19 C          17.1409   70.6039   -7.6246 C.ar    1  UNL1        0.3323
     20 C          19.4636   71.0306   -7.0485 C.ar    1  UNL1        0.0869
     21 C          19.8999   70.8411   -8.2958 C.ar    1  UNL1        0.0795
     22 C          18.9308   70.4991   -9.3557 C.ar    1  UNL1        0.2626
     23 H          16.9215   70.1736   -9.6333 H       1  UNL1        0.1734
     24 O          22.8555   71.6409   -1.0487 O.3     1  UNL1       -0.2703
     25 P          22.4900   70.6366    0.1639 P.3     1  UNL1        0.2208
     26 O          23.7559   69.6307    0.2070 O.3     1  UNL1       -0.4371
     27 O          21.1602   69.9537    0.0187 O.2     1  UNL1       -0.5170
     28 O          22.6363   71.5345    1.4968 O.3     1  UNL1       -0.2858
     29 O          21.7397   72.3470    3.5303 O.3     1  UNL1       -0.3226
     30 O          21.1148   75.5536    0.9600 O.3     1  UNL1       -0.3794
     31 O          20.6637   72.8185    0.0536 O.3     1  UNL1       -0.3775
     32 O          20.8795   75.0817    3.6715 O.3     1  UNL1       -0.3792
     33 C          21.7593   74.4144    1.5231 C.3     1  UNL1        0.1718
     34 C          20.8550   73.1818    1.4168 C.3     1  UNL1        0.1968
     35 C          22.0811   74.7030    2.9920 C.3     1  UNL1        0.1723
     36 C          21.4653   71.9937    2.1706 C.3     1  UNL1        0.2706
     37 C          22.6427   73.4451    3.6511 C.3     1  UNL1        0.1830
     38 H          21.7209   76.3085    1.0512 H       1  UNL1        0.2105
     39 H          20.0947   72.0306    0.0371 H       1  UNL1        0.2106
     40 H          20.3332   74.2877    3.7987 H       1  UNL1        0.2106
     41 O          21.7828   73.1884    5.8187 O.co2   1  UNL1       -0.5466
     42 O          23.8448   74.1413    5.6259 O.co2   1  UNL1       -0.5466
     43 C          22.8504   73.6426    5.1190 C.2     1  UNL1        0.0799
@<TRIPOS>UNITY_ATOM_ATTR
41 1
charge -1
@<TRIPOS>BOND
     1     1     4    1
     2     1    24    1
     3     1     2    1
     4     1     3    2
     5    25    28    1
     6    25    24    1
     7    25    26    1
     8    25    27    2
     9     6    11    1
    10     6    12    1
    11    29    36    1
    12    29    37    1
    13     7     9    1
    14     7    13    1
    15     8    10    1
    16     8    14    1
    17     4     5    1
    18    28    36    1
    19    30    33    1
    20    30    38    1
    21    31    34    1
    22    31    39    1
    23    32    35    1
    24    32    40    1
    25    41    43   ar
    26    15    19    2
    27    42    43   ar
    28    16    22    2
    29    17    12    1
    30    17    19   ar
    31    17    20   ar
    32    18    19   ar
    33    18    22   ar
    34    18    23    1
    35     9    10    1
    36     9    11    1
    37    10    12    1
    38    11     5    1
    39    33    34    1
    40    33    35    1
    41    34    36    1
    42    35    37    1
    43    37    43    1
    44    20    21   ar
    45    21    22   ar
@<TRIPOS>MOLECULE
UDP-glaA
 43 45 0 0 0
SMALL
GASTEIGER

@<TRIPOS>ATOM
      1 P          21.6739   70.4103   -0.9514 P.3     1  UNL1        0.2189
      2 O          23.2292   70.6632   -1.3180 O.3     1  UNL1       -0.4371
      3 O          21.4383   69.6765    0.3363 O.2     1  UNL1       -0.5170
      4 O          21.0691   69.7123   -2.2790 O.3     1  UNL1       -0.3112
      5 C          20.7620   70.5308   -3.3947 C.3     1  UNL1        0.1811
      6 O          18.9938   71.7721   -4.4468 O.3     1  UNL1       -0.3308
      7 O          17.1940   70.6396   -2.3327 O.3     1  UNL1       -0.3794
      8 O          16.6395   69.0682   -4.4913 O.3     1  UNL1       -0.3779
      9 C          18.2999   70.0303   -2.9986 C.3     1  UNL1        0.1713
     10 C          17.9200   69.6601   -4.4168 C.3     1  UNL1        0.1895
     11 C          19.3610   71.0999   -3.2218 C.3     1  UNL1        0.1764
     12 C          17.9840   71.0042   -5.1219 C.3     1  UNL1        0.2383
     13 H          17.4953   70.8943   -1.4440 H       1  UNL1        0.2105
     14 H          16.6504   68.2752   -3.9281 H       1  UNL1        0.2106
     15 O          16.1581   70.3988   -7.1895 O.2     1  UNL1       -0.2464
     16 O          19.4610   70.5519  -10.3999 O.2     1  UNL1       -0.2670
     17 N          18.3392   70.8804   -6.5068 N.ar    1  UNL1       -0.2551
     18 N          17.8041   70.4749   -8.7867 N.ar    1  UNL1       -0.2743
     19 C          17.3464   70.5725   -7.4661 C.ar    1  UNL1        0.3323
     20 C          19.6595   71.0632   -6.9027 C.ar    1  UNL1        0.0869
     21 C          20.0800   70.9672   -8.1660 C.ar    1  UNL1        0.0795
     22 C          19.1065   70.6478   -9.2289 C.ar    1  UNL1        0.2626
     23 H          17.1077   70.2538   -9.4934 H       1  UNL1        0.1734
     24 O          21.0427   71.8983   -1.0039 O.3     1  UNL1       -0.2703
     25 P          21.7035   73.3417   -0.6998 P.3     1  UNL1        0.2208
     26 O          20.6413   74.3788   -1.3418 O.3     1  UNL1       -0.4371
     27 O          23.1074   73.4963   -1.2108 O.2     1  UNL1       -0.5170
     28 O          21.5496   73.5342    0.8949 O.3     1  UNL1       -0.2858
     29 O          23.5049   74.2239    2.0353 O.3     1  UNL1       -0.3226
     30 O          20.9988   73.1516    5.1736 O.3     1  UNL1       -0.3794
     31 O          21.1108   71.5355    2.7484 O.3     1  UNL1       -0.3775
     32 O          23.4536   74.3881    4.9004 O.3     1  UNL1       -0.3792
     33 C          21.3801   73.6597    3.8981 C.3     1  UNL1        0.1718
     34 C          22.0466   72.5613    3.0628 C.3     1  UNL1        0.1968
     35 C          22.3510   74.8263    4.0999 C.3     1  UNL1        0.1723
     36 C          22.6134   73.1384    1.7597 C.3     1  UNL1        0.2706
     37 C          22.8814   75.2925    2.7458 C.3     1  UNL1        0.1830
     38 H          20.5846   73.8797    5.6675 H       1  UNL1        0.2105
     39 H          21.5742   70.8698    2.2128 H       1  UNL1        0.2106
     40 H          24.0245   73.8203    4.3556 H       1  UNL1        0.2106
     41 O          23.4617   77.5532    2.5079 O.co2   1  UNL1       -0.5466
     42 O          25.0607   76.1519    3.3307 O.co2   1  UNL1       -0.5466
     43 C          23.9320   76.3454    2.9028 C.2     1  UNL1        0.0799
@<TRIPOS>UNITY_ATOM_ATTR
41 1
charge -1
@<TRIPOS>BOND
     1     1     4    1
     2     1    24    1
     3     1     2    1
     4     1     3    2
     5    25    28    1
     6    25    24    1
     7    25    26    1
     8    25    27    2
     9     6    11    1
    10     6    12    1
    11    29    36    1
    12    29    37    1
    13     7     9    1
    14     7    13    1
    15     8    10    1
    16     8    14    1
    17     4     5    1
    18    28    36    1
    19    30    33    1
    20    30    38    1
    21    31    34    1
    22    31    39    1
    23    32    35    1
    24    32    40    1
    25    41    43   ar
    26    15    19    2
    27    42    43   ar
    28    16    22    2
    29    17    12    1
    30    17    19   ar
    31    17    20   ar
    32    18    19   ar
    33    18    22   ar
    34    18    23    1
    35     9    10    1
    36     9    11    1
    37    10    12    1
    38    11     5    1
    39    33    34    1
    40    33    35    1
    41    34    36    1
    42    35    37    1
    43    37    43    1
    44    20    21   ar
    45    21    22   ar
@<TRIPOS>MOLECULE
UDP-glaA
 43 45 0 0 0
SMALL
GASTEIGER

@<TRIPOS>ATOM
      1 P          21.0409   72.9449   -5.3695 P.3     1  UNL1        0.2189
      2 O          21.8615   72.8020   -6.7565 O.3     1  UNL1       -0.4371
      3 O          20.4689   71.6636   -4.8375 O.2     1  UNL1       -0.5170
      4 O          19.9721   74.1212   -5.6685 O.3     1  UNL1       -0.3112
      5 C          19.2842   74.7054   -4.5754 C.3     1  UNL1        0.1811
      6 O          17.8190   74.9593   -6.4630 O.3     1  UNL1       -0.3308
      7 O          15.5715   74.9822   -4.4782 O.3     1  UNL1       -0.3794
      8 O          15.4867   72.4336   -5.4444 O.3     1  UNL1       -0.3779
      9 C          16.7875   74.2348   -4.4571 C.3     1  UNL1        0.1713
     10 C          16.7283   73.1071   -5.4658 C.3     1  UNL1        0.1895
     11 C          17.8904   75.1160   -5.0286 C.3     1  UNL1        0.1764
     12 C          16.9726   73.8402   -6.7738 C.3     1  UNL1        0.2383
     13 H          15.6705   75.7147   -3.8465 H       1  UNL1        0.2105
     14 H          15.3571   72.0873   -4.5448 H       1  UNL1        0.2106
     15 O          17.4189   74.5962   -9.4579 O.2     1  UNL1       -0.2464
     16 O          19.4916   70.5968  -10.4313 O.2     1  UNL1       -0.2670
     17 N          17.6268   73.0166   -7.7500 N.ar    1  UNL1       -0.2551
     18 N          18.4502   72.6039   -9.9410 N.ar    1  UNL1       -0.2743
     19 C          17.8003   73.4899   -9.0716 C.ar    1  UNL1        0.3323
     20 C          18.0887   71.7542   -7.3943 C.ar    1  UNL1        0.0869
     21 C          18.7070   70.9216   -8.2347 C.ar    1  UNL1        0.0795
     22 C          18.9270   71.3390   -9.6336 C.ar    1  UNL1        0.2626
     23 H          18.5854   72.9229  -10.8966 H       1  UNL1        0.1734
     24 O          22.1078   73.6641   -4.3898 O.3     1  UNL1       -0.2703
     25 P          23.3383   73.0581   -3.5348 P.3     1  UNL1        0.2208
     26 O          24.6157   73.8822   -4.0875 O.3     1  UNL1       -0.4371
     27 O          23.4764   71.5654   -3.6270 O.2     1  UNL1       -0.5170
     28 O          23.1096   73.6152   -2.0377 O.3     1  UNL1       -0.2858
     29 O          21.4994   72.0944   -1.2047 O.3     1  UNL1       -0.3226
     30 O          22.5484   74.2120    2.2150 O.3     1  UNL1       -0.3794
     31 O          22.2037   75.5888   -0.3328 O.3     1  UNL1       -0.3775
     32 O          21.0401   71.9741    1.6261 O.3     1  UNL1       -0.3792
     33 C          22.7073   73.5843    0.9458 C.3     1  UNL1        0.1718
     34 C          21.7972   74.2453   -0.0950 C.3     1  UNL1        0.1968
     35 C          22.3574   72.0997    1.0802 C.3     1  UNL1        0.1723
     36 C          21.8325   73.4701   -1.4180 C.3     1  UNL1        0.2706
     37 C          22.3838   71.4395   -0.2966 C.3     1  UNL1        0.1830
     38 H          23.1398   73.7609    2.8414 H       1  UNL1        0.2105
     39 H          21.6065   75.9618   -1.0029 H       1  UNL1        0.2106
     40 H          20.3964   72.2103    0.9369 H       1  UNL1        0.2106
     41 O          21.3342   69.6522   -1.3955 O.co2   1  UNL1       -0.5466
     42 O          22.0555   69.2814    0.7351 O.co2   1  UNL1       -0.5466
     43 C          21.9219   70.0185   -0.2310 C.2     1  UNL1        0.0799
@<TRIPOS>UNITY_ATOM_ATTR
41 1
charge -1
@<TRIPOS>BOND
     1     1     4    1
     2     1    24    1
     3     1     2    1
     4     1     3    2
     5    25    28    1
     6    25    24    1
     7    25    26    1
     8    25    27    2
     9     6    11    1
    10     6    12    1
    11    29    36    1
    12    29    37    1
    13     7     9    1
    14     7    13    1
    15     8    10    1
    16     8    14    1
    17     4     5    1
    18    28    36    1
    19    30    33    1
    20    30    38    1
    21    31    34    1
    22    31    39    1
    23    32    35    1
    24    32    40    1
    25    41    43   ar
    26    15    19    2
    27    42    43   ar
    28    16    22    2
    29    17    12    1
    30    17    19   ar
    31    17    20   ar
    32    18    19   ar
    33    18    22   ar
    34    18    23    1
    35     9    10    1
    36     9    11    1
    37    10    12    1
    38    11     5    1
    39    33    34    1
    40    33    35    1
    41    34    36    1
    42    35    37    1
    43    37    43    1
    44    20    21   ar
    45    21    22   ar
@<TRIPOS>MOLECULE
UDP-glaA
 43 45 0 0 0
SMALL
GASTEIGER

@<TRIPOS>ATOM
      1 P          21.9077   73.6123   -5.9596 P.3     1  UNL1        0.2189
      2 O          22.2292   75.1948   -5.8615 O.3     1  UNL1       -0.4371
      3 O          22.8849   72.8172   -6.7752 O.2     1  UNL1       -0.5170
      4 O          20.3694   73.5571   -6.4555 O.3     1  UNL1       -0.3112
      5 C          19.9982   74.3107   -7.5972 C.3     1  UNL1        0.1811
      6 O          19.6274   72.0097   -8.1823 O.3     1  UNL1       -0.3308
      7 O          17.9119   73.0476  -10.4119 O.3     1  UNL1       -0.3794
      8 O          16.0721   72.3034   -8.5420 O.3     1  UNL1       -0.3779
      9 C          18.0810   73.5583   -9.0897 C.3     1  UNL1        0.1713
     10 C          17.3566   72.6804   -8.0911 C.3     1  UNL1        0.1895
     11 C          19.5376   73.3586   -8.6918 C.3     1  UNL1        0.1764
     12 C          18.3020   71.4979   -7.9660 C.3     1  UNL1        0.2383
     13 H          18.4240   73.6178  -11.0105 H       1  UNL1        0.2105
     14 H          15.5667   73.1190   -8.7014 H       1  UNL1        0.2106
     15 O          16.0792   70.0631   -6.9781 O.2     1  UNL1       -0.2464
     16 O          18.1911   69.1882   -2.9765 O.2     1  UNL1       -0.2670
     17 N          18.2440   70.8843   -6.6700 N.ar    1  UNL1       -0.2551
     18 N          17.1322   69.6288   -4.9859 N.ar    1  UNL1       -0.2743
     19 C          17.0801   70.1872   -6.2699 C.ar    1  UNL1        0.3323
     20 C          19.3327   70.9766   -5.8100 C.ar    1  UNL1        0.0869
     21 C          19.3671   70.4383   -4.5890 C.ar    1  UNL1        0.0795
     22 C          18.1917   69.6944   -4.0943 C.ar    1  UNL1        0.2626
     23 H          16.3062   69.1235   -4.6768 H       1  UNL1        0.1734
     24 O          21.8054   73.1665   -4.4085 O.3     1  UNL1       -0.2703
     25 P          22.9339   72.6314   -3.3824 P.3     1  UNL1        0.2208
     26 O          24.1942   73.6011   -3.6783 O.3     1  UNL1       -0.4371
     27 O          23.2363   71.1657   -3.5090 O.2     1  UNL1       -0.5170
     28 O          22.4069   73.0799   -1.9247 O.3     1  UNL1       -0.2858
     29 O          23.4000   74.3253   -0.1748 O.3     1  UNL1       -0.3226
     30 O          21.2113   71.4770    1.9169 O.3     1  UNL1       -0.3794
     31 O          22.6873   70.7390   -0.4878 O.3     1  UNL1       -0.3775
     32 O          22.6396   73.7592    2.5344 O.3     1  UNL1       -0.3792
     33 C          21.5391   72.3918    0.8748 C.3     1  UNL1        0.1718
     34 C          22.8481   71.9788    0.1934 C.3     1  UNL1        0.1968
     35 C          21.6798   73.7942    1.4731 C.3     1  UNL1        0.1723
     36 C          23.2983   73.0471   -0.8109 C.3     1  UNL1        0.2706
     37 C          22.1696   74.7634    0.3994 C.3     1  UNL1        0.1830
     38 H          20.3795   71.7781    2.3207 H       1  UNL1        0.2105
     39 H          23.5360   70.5240   -0.9101 H       1  UNL1        0.2106
     40 H          23.5272   73.6806    2.1457 H       1  UNL1        0.2106
     41 O          21.5515   76.4186    1.9427 O.co2   1  UNL1       -0.5466
     42 O          23.3520   76.8575    0.6150 O.co2   1  UNL1       -0.5466
     43 C          22.4453   76.1182    0.9698 C.2     1  UNL1        0.0799
@<TRIPOS>UNITY_ATOM_ATTR
41 1
charge -1
@<TRIPOS>BOND
     1     1     4    1
     2     1    24    1
     3     1     2    1
     4     1     3    2
     5    25    28    1
     6    25    24    1
     7    25    26    1
     8    25    27    2
     9     6    11    1
    10     6    12    1
    11    29    36    1
    12    29    37    1
    13     7     9    1
    14     7    13    1
    15     8    10    1
    16     8    14    1
    17     4     5    1
    18    28    36    1
    19    30    33    1
    20    30    38    1
    21    31    34    1
    22    31    39    1
    23    32    35    1
    24    32    40    1
    25    41    43   ar
    26    15    19    2
    27    42    43   ar
    28    16    22    2
    29    17    12    1
    30    17    19   ar
    31    17    20   ar
    32    18    19   ar
    33    18    22   ar
    34    18    23    1
    35     9    10    1
    36     9    11    1
    37    10    12    1
    38    11     5    1
    39    33    34    1
    40    33    35    1
    41    34    36    1
    42    35    37    1
    43    37    43    1
    44    20    21   ar
    45    21    22   ar
@<TRIPOS>MOLECULE
UDP-glaA
 43 45 0 0 0
SMALL
GASTEIGER

@<TRIPOS>ATOM
      1 P          22.4444   72.5835   -2.1386 P.3     1  UNL1        0.2189
      2 O          21.7868   74.0448   -2.3611 O.3     1  UNL1       -0.4371
      3 O          23.6023   72.2667   -3.0392 O.2     1  UNL1       -0.5170
      4 O          21.1859   71.5719   -2.2295 O.3     1  UNL1       -0.3112
      5 C          20.5638   71.3758   -3.4880 C.3     1  UNL1        0.1811
      6 O          18.6489   72.2299   -4.6618 O.3     1  UNL1       -0.3308
      7 O          17.0015   71.0502   -2.4516 O.3     1  UNL1       -0.3794
      8 O          16.7252   69.2119   -4.4466 O.3     1  UNL1       -0.3779
      9 C          18.1974   70.5522   -3.0513 C.3     1  UNL1        0.1713
     10 C          17.9016   69.9936   -4.4272 C.3     1  UNL1        0.1895
     11 C          19.0908   71.7423   -3.3757 C.3     1  UNL1        0.1764
     12 C          17.7768   71.2575   -5.2609 C.3     1  UNL1        0.2383
     13 H          17.2459   71.4321   -1.5914 H       1  UNL1        0.2105
     14 H          16.8444   68.4878   -3.8082 H       1  UNL1        0.2106
     15 O          16.0558   70.3244   -7.2964 O.2     1  UNL1       -0.2464
     16 O          19.3986   70.5159  -10.4631 O.2     1  UNL1       -0.2670
     17 N          18.1706   71.0549   -6.6259 N.ar    1  UNL1       -0.2551
     18 N          17.7217   70.4199   -8.8718 N.ar    1  UNL1       -0.2743
     19 C          17.2295   70.5820   -7.5701 C.ar    1  UNL1        0.3323
     20 C          19.4774   71.3238   -7.0175 C.ar    1  UNL1        0.0869
     21 C          19.9312   71.1646   -8.2627 C.ar    1  UNL1        0.0795
     22 C          19.0125   70.6737   -9.3090 C.ar    1  UNL1        0.2626
     23 H          17.0627   70.0804   -9.5673 H       1  UNL1        0.1734
     24 O          22.7984   72.5819   -0.5607 O.3     1  UNL1       -0.2703
     25 P          21.8402   72.5992    0.7409 P.3     1  UNL1        0.2208
     26 O          21.6352   71.0292    1.0717 O.3     1  UNL1       -0.4371
     27 O          20.5620   73.3655    0.5547 O.2     1  UNL1       -0.5170
     28 O          22.7792   73.1485    1.9327 O.3     1  UNL1       -0.2858
     29 O          21.7871   74.4589    3.6351 O.3     1  UNL1       -0.3226
     30 O          25.8344   75.2250    4.1933 O.3     1  UNL1       -0.3794
     31 O          24.7122   75.0731    1.5057 O.3     1  UNL1       -0.3775
     32 O          23.4852   75.7760    5.5378 O.3     1  UNL1       -0.3792
     33 C          24.6594   74.4893    3.8643 C.3     1  UNL1        0.1718
     34 C          23.9270   75.1488    2.6908 C.3     1  UNL1        0.1968
     35 C          23.7454   74.4410    5.0918 C.3     1  UNL1        0.1723
     36 C          22.5763   74.4663    2.4409 C.3     1  UNL1        0.2706
     37 C          22.4200   73.7804    4.7190 C.3     1  UNL1        0.1830
     38 H          26.2633   74.7741    4.9404 H       1  UNL1        0.2105
     39 H          24.2053   75.4934    0.7906 H       1  UNL1        0.2106
     40 H          22.8662   76.1944    4.9157 H       1  UNL1        0.2106
     41 O          22.0972   73.9231    7.0383 O.co2   1  UNL1       -0.5466
     42 O          20.2304   73.7898    5.7367 O.co2   1  UNL1       -0.5466
     43 C          21.4467   73.8279    5.8537 C.2     1  UNL1        0.0799
@<TRIPOS>UNITY_ATOM_ATTR
41 1
charge -1
@<TRIPOS>BOND
     1     1     4    1
     2     1    24    1
     3     1     2    1
     4     1     3    2
     5    25    28    1
     6    25    24    1
     7    25    26    1
     8    25    27    2
     9     6    11    1
    10     6    12    1
    11    29    36    1
    12    29    37    1
    13     7     9    1
    14     7    13    1
    15     8    10    1
    16     8    14    1
    17     4     5    1
    18    28    36    1
    19    30    33    1
    20    30    38    1
    21    31    34    1
    22    31    39    1
    23    32    35    1
    24    32    40    1
    25    41    43   ar
    26    15    19    2
    27    42    43   ar
    28    16    22    2
    29    17    12    1
    30    17    19   ar
    31    17    20   ar
    32    18    19   ar
    33    18    22   ar
    34    18    23    1
    35     9    10    1
    36     9    11    1
    37    10    12    1
    38    11     5    1
    39    33    34    1
    40    33    35    1
    41    34    36    1
    42    35    37    1
    43    37    43    1
    44    20    21   ar
    45    21    22   ar
@<TRIPOS>MOLECULE
UDP-glaA
 43 45 0 0 0
SMALL
GASTEIGER

@<TRIPOS>ATOM
      1 P          22.7371   71.7865   -3.0690 P.3     1  UNL1        0.2189
      2 O          23.7236   73.0684   -3.1002 O.3     1  UNL1       -0.4371
      3 O          23.4015   70.4697   -3.3462 O.2     1  UNL1       -0.5170
      4 O          21.5371   72.1936   -4.0739 O.3     1  UNL1       -0.3112
      5 C          20.2099   71.8422   -3.7216 C.3     1  UNL1        0.1811
      6 O          19.3773   73.3918   -5.3586 O.3     1  UNL1       -0.3308
      7 O          17.1771   73.9810   -3.4084 O.3     1  UNL1       -0.3794
      8 O          15.9672   72.2982   -5.1806 O.3     1  UNL1       -0.3779
      9 C          17.8315   72.7428   -3.6847 C.3     1  UNL1        0.1713
     10 C          17.3657   72.1878   -5.0142 C.3     1  UNL1        0.1895
     11 C          19.2999   73.0388   -3.9598 C.3     1  UNL1        0.1764
     12 C          18.1406   73.0428   -6.0023 C.3     1  UNL1        0.2383
     13 H          17.5348   74.3168   -2.5689 H       1  UNL1        0.2105
     14 H          15.5464   71.8153   -4.4486 H       1  UNL1        0.2106
     15 O          18.2663   70.2317   -6.2411 O.2     1  UNL1       -0.2464
     16 O          19.2607   70.4749  -10.7345 O.2     1  UNL1       -0.2670
     17 N          18.4298   72.3449   -7.2224 N.ar    1  UNL1       -0.2551
     18 N          18.7619   70.3547   -8.4784 N.ar    1  UNL1       -0.2743
     19 C          18.4700   70.9311   -7.2351 C.ar    1  UNL1        0.3323
     20 C          18.6700   73.0606   -8.3901 C.ar    1  UNL1        0.0869
     21 C          18.9465   72.4963   -9.5678 C.ar    1  UNL1        0.0795
     22 C          19.0084   71.0246   -9.6667 C.ar    1  UNL1        0.2626
     23 H          18.7967   69.3394   -8.5111 H       1  UNL1        0.1734
     24 O          22.0442   71.8979   -1.6121 O.3     1  UNL1       -0.2703
     25 P          21.7048   70.7652   -0.5101 P.3     1  UNL1        0.2208
     26 O          23.1526   70.1256   -0.1771 O.3     1  UNL1       -0.4371
     27 O          20.6725   69.7670   -0.9506 O.2     1  UNL1       -0.5170
     28 O          21.3084   71.5922    0.8176 O.3     1  UNL1       -0.2858
     29 O          21.5287   73.9142    1.2168 O.3     1  UNL1       -0.3226
     30 O          21.9299   72.3315    5.0395 O.3     1  UNL1       -0.3794
     31 O          23.1916   71.0275    2.7561 O.3     1  UNL1       -0.3775
     32 O          21.6760   74.8471    3.9272 O.3     1  UNL1       -0.3792
     33 C          21.4626   72.4518    3.6988 C.3     1  UNL1        0.1718
     34 C          22.6303   72.3352    2.7134 C.3     1  UNL1        0.1968
     35 C          20.7723   73.8087    3.5349 C.3     1  UNL1        0.1723
     36 C          22.1656   72.6339    1.2826 C.3     1  UNL1        0.2706
     37 C          20.3905   74.0167    2.0710 C.3     1  UNL1        0.1830
     38 H          21.1595   72.4136    5.6272 H       1  UNL1        0.2105
     39 H          23.9183   70.9989    2.1112 H       1  UNL1        0.2106
     40 H          22.3515   74.9465    3.2351 H       1  UNL1        0.2106
     41 O          18.4753   75.3520    1.8416 O.co2   1  UNL1       -0.5466
     42 O          20.4949   76.3965    1.6766 O.co2   1  UNL1       -0.5466
     43 C          19.8297   75.3840    1.8407 C.2     1  UNL1        0.0799
@<TRIPOS>UNITY_ATOM_ATTR
41 1
charge -1
@<TRIPOS>BOND
     1     1     4    1
     2     1    24    1
     3     1     2    1
     4     1     3    2
     5    25    28    1
     6    25    24    1
     7    25    26    1
     8    25    27    2
     9     6    11    1
    10     6    12    1
    11    29    36    1
    12    29    37    1
    13     7     9    1
    14     7    13    1
    15     8    10    1
    16     8    14    1
    17     4     5    1
    18    28    36    1
    19    30    33    1
    20    30    38    1
    21    31    34    1
    22    31    39    1
    23    32    35    1
    24    32    40    1
    25    41    43   ar
    26    15    19    2
    27    42    43   ar
    28    16    22    2
    29    17    12    1
    30    17    19   ar
    31    17    20   ar
    32    18    19   ar
    33    18    22   ar
    34    18    23    1
    35     9    10    1
    36     9    11    1
    37    10    12    1
    38    11     5    1
    39    33    34    1
    40    33    35    1
    41    34    36    1
    42    35    37    1
    43    37    43    1
    44    20    21   ar
    45    21    22   ar
@<TRIPOS>MOLECULE
UDP-glaA
 43 45 0 0 0
SMALL
GASTEIGER

@<TRIPOS>ATOM
      1 P          22.8212   72.1582   -2.6205 P.3     1  UNL1        0.2189
      2 O          23.4488   70.6743   -2.7672 O.3     1  UNL1       -0.4371
      3 O          22.6058   72.6177   -1.2082 O.2     1  UNL1       -0.5170
      4 O          21.5022   72.1177   -3.5554 O.3     1  UNL1       -0.3112
      5 C          20.6562   70.9826   -3.4845 C.3     1  UNL1        0.1811
      6 O          18.8031   72.0630   -4.5675 O.3     1  UNL1       -0.3308
      7 O          17.0857   70.8415   -2.4345 O.3     1  UNL1       -0.3794
      8 O          16.6617   69.1873   -4.5603 O.3     1  UNL1       -0.3779
      9 C          18.2377   70.3044   -3.0842 C.3     1  UNL1        0.1713
     10 C          17.8931   69.8764   -4.4951 C.3     1  UNL1        0.1895
     11 C          19.2152   71.4468   -3.3275 C.3     1  UNL1        0.1764
     12 C          17.8575   71.2063   -5.2287 C.3     1  UNL1        0.2383
     13 H          17.3631   71.1372   -1.5506 H       1  UNL1        0.2105
     14 H          16.7305   68.4094   -3.9803 H       1  UNL1        0.2106
     15 O          16.0852   71.5816   -7.3952 O.2     1  UNL1       -0.2464
     16 O          19.3864   70.6960  -10.4866 O.2     1  UNL1       -0.2670
     17 N          18.2271   71.0807   -6.6097 N.ar    1  UNL1       -0.2551
     18 N          17.7301   71.1398   -8.9331 N.ar    1  UNL1       -0.2743
     19 C          17.2607   71.2887   -7.6214 C.ar    1  UNL1        0.3323
     20 C          19.5351   70.7543   -6.9503 C.ar    1  UNL1        0.0869
     21 C          19.9672   70.6165   -8.2057 C.ar    1  UNL1        0.0795
     22 C          19.0209   70.8159   -9.3212 C.ar    1  UNL1        0.2626
     23 H          17.0525   71.2842   -9.6769 H       1  UNL1        0.1734
     24 O          23.8453   73.0710   -3.4769 O.3     1  UNL1       -0.2703
     25 P          23.7582   74.6191   -3.9332 P.3     1  UNL1        0.2208
     26 O          25.2955   74.9945   -4.2675 O.3     1  UNL1       -0.4371
     27 O          23.1043   75.5221   -2.9268 O.2     1  UNL1       -0.5170
     28 O          23.0252   74.5813   -5.3703 O.3     1  UNL1       -0.2858
     29 O          22.7902   76.5768   -6.6201 O.3     1  UNL1       -0.3226
     30 O          19.9982   74.0833   -8.4275 O.3     1  UNL1       -0.3794
     31 O          20.3108   74.1015   -5.5278 O.3     1  UNL1       -0.3775
     32 O          21.0804   76.5755   -8.9256 O.3     1  UNL1       -0.3792
     33 C          21.1992   74.4625   -7.7610 C.3     1  UNL1        0.1718
     34 C          20.8806   75.0773   -6.3939 C.3     1  UNL1        0.1968
     35 C          21.9486   75.4766   -8.6296 C.3     1  UNL1        0.1723
     36 C          22.1491   75.6438   -5.7441 C.3     1  UNL1        0.2706
     37 C          23.1653   76.0021   -7.8709 C.3     1  UNL1        0.1830
     38 H          20.2473   73.7025   -9.2868 H       1  UNL1        0.2105
     39 H          20.1354   74.5331   -4.6747 H       1  UNL1        0.2106
     40 H          20.9844   77.1177   -8.1244 H       1  UNL1        0.2106
     41 O          24.4992   77.9300   -7.7830 O.co2   1  UNL1       -0.5466
     42 O          23.8459   77.2129   -9.8459 O.co2   1  UNL1       -0.5466
     43 C          23.8548   77.0912   -8.6296 C.2     1  UNL1        0.0799
@<TRIPOS>UNITY_ATOM_ATTR
41 1
charge -1
@<TRIPOS>BOND
     1     1     4    1
     2     1    24    1
     3     1     2    1
     4     1     3    2
     5    25    28    1
     6    25    24    1
     7    25    26    1
     8    25    27    2
     9     6    11    1
    10     6    12    1
    11    29    36    1
    12    29    37    1
    13     7     9    1
    14     7    13    1
    15     8    10    1
    16     8    14    1
    17     4     5    1
    18    28    36    1
    19    30    33    1
    20    30    38    1
    21    31    34    1
    22    31    39    1
    23    32    35    1
    24    32    40    1
    25    41    43   ar
    26    15    19    2
    27    42    43   ar
    28    16    22    2
    29    17    12    1
    30    17    19   ar
    31    17    20   ar
    32    18    19   ar
    33    18    22   ar
    34    18    23    1
    35     9    10    1
    36     9    11    1
    37    10    12    1
    38    11     5    1
    39    33    34    1
    40    33    35    1
    41    34    36    1
    42    35    37    1
    43    37    43    1
    44    20    21   ar
    45    21    22   ar
@<TRIPOS>MOLECULE
UDP-glaA
 43 45 0 0 0
SMALL
GASTEIGER

@<TRIPOS>ATOM
      1 P          22.3267   71.2611   -2.7983 P.3     1  UNL1        0.2189
      2 O          22.1782   72.7162   -3.4897 O.3     1  UNL1       -0.4371
      3 O          23.3874   70.3825   -3.3943 O.2     1  UNL1       -0.5170
      4 O          20.8241   70.6634   -2.8213 O.3     1  UNL1       -0.3112
      5 C          20.2597   70.2975   -4.0689 C.3     1  UNL1        0.1811
      6 O          19.2342   72.3019   -4.9086 O.3     1  UNL1       -0.3308
      7 O          16.6517   70.7790   -4.8573 O.3     1  UNL1       -0.3794
      8 O          17.3487   70.6810   -7.4918 O.3     1  UNL1       -0.3779
      9 C          17.9663   70.3177   -5.1686 C.3     1  UNL1        0.1713
     10 C          18.3840   70.8075   -6.5391 C.3     1  UNL1        0.1895
     11 C          18.9470   71.0445   -4.2578 C.3     1  UNL1        0.1764
     12 C          18.7465   72.2562   -6.2596 C.3     1  UNL1        0.2383
     13 H          16.4433   70.4746   -3.9576 H       1  UNL1        0.2105
     14 H          17.1009   69.7412   -7.5317 H       1  UNL1        0.2106
     15 O          20.3812   70.6149   -7.8750 O.2     1  UNL1       -0.2464
     16 O          22.6327   74.2454   -9.6038 O.2     1  UNL1       -0.2670
     17 N          19.7673   72.7457   -7.1416 N.ar    1  UNL1       -0.2551
     18 N          21.5016   72.4238   -8.7344 N.ar    1  UNL1       -0.2743
     19 C          20.5332   71.8373   -7.9089 C.ar    1  UNL1        0.3323
     20 C          20.0013   74.1128   -7.2397 C.ar    1  UNL1        0.0869
     21 C          20.9280   74.6565   -8.0318 C.ar    1  UNL1        0.0795
     22 C          21.7715   73.7772   -8.8655 C.ar    1  UNL1        0.2626
     23 H          22.0647   71.7897   -9.2949 H       1  UNL1        0.1734
     24 O          22.5500   71.6225   -1.2379 O.3     1  UNL1       -0.2703
     25 P          22.4193   70.7112    0.0907 P.3     1  UNL1        0.2208
     26 O          23.7637   69.8125    0.0578 O.3     1  UNL1       -0.4371
     27 O          21.1458   69.9191    0.1715 O.2     1  UNL1       -0.5170
     28 O          22.6445   71.7383    1.3147 O.3     1  UNL1       -0.2858
     29 O          21.9334   72.3859    3.4768 O.3     1  UNL1       -0.3226
     30 O          21.0129   75.7489    1.2134 O.3     1  UNL1       -0.3794
     31 O          20.5220   73.0740    0.1598 O.3     1  UNL1       -0.3775
     32 O          21.0459   75.0835    3.8941 O.3     1  UNL1       -0.3792
     33 C          21.7270   74.5883    1.6300 C.3     1  UNL1        0.1718
     34 C          20.8369   73.3456    1.5214 C.3     1  UNL1        0.1968
     35 C          22.1830   74.7810    3.0789 C.3     1  UNL1        0.1723
     36 C          21.5360   72.1221    2.1272 C.3     1  UNL1        0.2706
     37 C          22.8256   73.4935    3.5903 C.3     1  UNL1        0.1830
     38 H          21.6125   76.5094    1.3009 H       1  UNL1        0.2105
     39 H          19.9671   72.2762    0.1405 H       1  UNL1        0.2106
     40 H          20.5274   74.2701    4.0150 H       1  UNL1        0.2106
     41 O          24.4063   74.1212    5.2061 O.co2   1  UNL1       -0.5466
     42 O          22.4397   73.2499    5.9612 O.co2   1  UNL1       -0.5466
     43 C          23.1695   73.5928    5.0424 C.2     1  UNL1        0.0799
@<TRIPOS>UNITY_ATOM_ATTR
41 1
charge -1
@<TRIPOS>BOND
     1     1     4    1
     2     1    24    1
     3     1     2    1
     4     1     3    2
     5    25    28    1
     6    25    24    1
     7    25    26    1
     8    25    27    2
     9     6    11    1
    10     6    12    1
    11    29    36    1
    12    29    37    1
    13     7     9    1
    14     7    13    1
    15     8    10    1
    16     8    14    1
    17     4     5    1
    18    28    36    1
    19    30    33    1
    20    30    38    1
    21    31    34    1
    22    31    39    1
    23    32    35    1
    24    32    40    1
    25    41    43   ar
    26    15    19    2
    27    42    43   ar
    28    16    22    2
    29    17    12    1
    30    17    19   ar
    31    17    20   ar
    32    18    19   ar
    33    18    22   ar
    34    18    23    1
    35     9    10    1
    36     9    11    1
    37    10    12    1
    38    11     5    1
    39    33    34    1
    40    33    35    1
    41    34    36    1
    42    35    37    1
    43    37    43    1
    44    20    21   ar
    45    21    22   ar
@<TRIPOS>MOLECULE
UDP-glaA
 43 45 0 0 0
SMALL
GASTEIGER

@<TRIPOS>ATOM
      1 P          22.3262   75.1792   -8.2600 P.3     1  UNL1        0.2189
      2 O          21.9399   75.1506   -6.6893 O.3     1  UNL1       -0.4371
      3 O          21.5915   76.2038   -9.0740 O.2     1  UNL1       -0.5170
      4 O          22.1454   73.6435   -8.7339 O.3     1  UNL1       -0.3112
      5 C          21.3282   72.7861   -7.9553 C.3     1  UNL1        0.1811
      6 O          19.9880   70.8060   -8.1943 O.3     1  UNL1       -0.3308
      7 O          18.6168   72.2322  -10.4476 O.3     1  UNL1       -0.3794
      8 O          16.8475   72.5247   -8.3933 O.3     1  UNL1       -0.3779
      9 C          19.1218   72.7579   -9.2203 C.3     1  UNL1        0.1713
     10 C          18.2145   72.3726   -8.0710 C.3     1  UNL1        0.1895
     11 C          20.4030   72.0079   -8.8800 C.3     1  UNL1        0.1764
     12 C          18.6011   70.9223   -7.8359 C.3     1  UNL1        0.2383
     13 H          19.2492   72.4702  -11.1469 H       1  UNL1        0.2105
     14 H          16.7059   73.4560   -8.6360 H       1  UNL1        0.2106
     15 O          16.1905   69.9487   -6.7330 O.2     1  UNL1       -0.2464
     16 O          18.0908   69.4359   -2.5659 O.2     1  UNL1       -0.2670
     17 N          18.4378   70.5266   -6.4662 N.ar    1  UNL1       -0.2551
     18 N          17.1382   69.6945   -4.6586 N.ar    1  UNL1       -0.2743
     19 C          17.1849   70.0520   -6.0125 C.ar    1  UNL1        0.3323
     20 C          19.5122   70.6108   -5.5876 C.ar    1  UNL1        0.0869
     21 C          19.4518   70.2656   -4.2996 C.ar    1  UNL1        0.0795
     22 C          18.1796   69.7610   -3.7459 C.ar    1  UNL1        0.2626
     23 H          16.2472   69.3511   -4.3102 H       1  UNL1        0.1734
     24 O          23.9325   75.3647   -8.2347 O.3     1  UNL1       -0.2703
     25 P          24.9677   75.8025   -9.3963 P.3     1  UNL1        0.2208
     26 O          25.0388   77.4111   -9.2430 O.3     1  UNL1       -0.4371
     27 O          24.5895   75.3267  -10.7698 O.2     1  UNL1       -0.5170
     28 O          26.4049   75.2792   -8.8818 O.3     1  UNL1       -0.2858
     29 O          27.8831   76.3207   -7.3555 O.3     1  UNL1       -0.3226
     30 O          30.5006   74.2164   -9.8050 O.3     1  UNL1       -0.3794
     31 O          28.2104   75.6189  -10.9427 O.3     1  UNL1       -0.3775
     32 O          30.6725   75.6506   -7.4506 O.3     1  UNL1       -0.3792
     33 C          29.3075   74.5055   -9.0817 C.3     1  UNL1        0.1718
     34 C          28.6643   75.7943   -9.6048 C.3     1  UNL1        0.1968
     35 C          29.6525   74.6571   -7.5976 C.3     1  UNL1        0.1723
     36 C          27.4783   76.2060   -8.7237 C.3     1  UNL1        0.2706
     37 C          28.4137   75.1067   -6.8260 C.3     1  UNL1        0.1830
     38 H          30.8738   73.3963   -9.4395 H       1  UNL1        0.2105
     39 H          27.8037   76.4549  -11.2265 H       1  UNL1        0.2106
     40 H          30.2742   76.5258   -7.5943 H       1  UNL1        0.2106
     41 O          29.1426   76.6759   -5.2417 O.co2   1  UNL1       -0.5466
     42 O          28.6425   74.5865   -4.4794 O.co2   1  UNL1       -0.5466
     43 C          28.7352   75.3928   -5.3936 C.2     1  UNL1        0.0799
@<TRIPOS>UNITY_ATOM_ATTR
41 1
charge -1
@<TRIPOS>BOND
     1     1     4    1
     2     1    24    1
     3     1     2    1
     4     1     3    2
     5    25    28    1
     6    25    24    1
     7    25    26    1
     8    25    27    2
     9     6    11    1
    10     6    12    1
    11    29    36    1
    12    29    37    1
    13     7     9    1
    14     7    13    1
    15     8    10    1
    16     8    14    1
    17     4     5    1
    18    28    36    1
    19    30    33    1
    20    30    38    1
    21    31    34    1
    22    31    39    1
    23    32    35    1
    24    32    40    1
    25    41    43   ar
    26    15    19    2
    27    42    43   ar
    28    16    22    2
    29    17    12    1
    30    17    19   ar
    31    17    20   ar
    32    18    19   ar
    33    18    22   ar
    34    18    23    1
    35     9    10    1
    36     9    11    1
    37    10    12    1
    38    11     5    1
    39    33    34    1
    40    33    35    1
    41    34    36    1
    42    35    37    1
    43    37    43    1
    44    20    21   ar
    45    21    22   ar
@<TRIPOS>MOLECULE
UDP-glaA
 43 45 0 0 0
SMALL
GASTEIGER

@<TRIPOS>ATOM
      1 P          22.2196   74.9306   -8.1127 P.3     1  UNL1        0.2189
      2 O          21.9455   74.6360   -6.5457 O.3     1  UNL1       -0.4371
      3 O          21.4744   76.1053   -8.6757 O.2     1  UNL1       -0.5170
      4 O          21.9380   73.5095   -8.8315 O.3     1  UNL1       -0.3112
      5 C          21.2906   72.4909   -8.0881 C.3     1  UNL1        0.1811
      6 O          19.7899   70.6253   -8.2926 O.3     1  UNL1       -0.3308
      7 O          18.4102   72.2097  -10.4321 O.3     1  UNL1       -0.3794
      8 O          16.7857   72.5826   -8.2739 O.3     1  UNL1       -0.3779
      9 C          19.0218   72.6634   -9.2248 C.3     1  UNL1        0.1713
     10 C          18.1526   72.3186   -8.0339 C.3     1  UNL1        0.1895
     11 C          20.2580   71.8096   -8.9749 C.3     1  UNL1        0.1764
     12 C          18.4383   70.8375   -7.8528 C.3     1  UNL1        0.2383
     13 H          19.0193   72.4170  -11.1612 H       1  UNL1        0.2105
     14 H          16.7034   73.5279   -8.4878 H       1  UNL1        0.2106
     15 O          16.1503   69.6006   -6.7525 O.2     1  UNL1       -0.2464
     16 O          18.1010   69.2796   -2.5895 O.2     1  UNL1       -0.2670
     17 N          18.3211   70.4199   -6.4849 N.ar    1  UNL1       -0.2551
     18 N          17.1230   69.4421   -4.6801 N.ar    1  UNL1       -0.2743
     19 C          17.1284   69.8088   -6.0324 C.ar    1  UNL1        0.3323
     20 C          19.3810   70.6171   -5.6068 C.ar    1  UNL1        0.0869
     21 C          19.3606   70.2614   -4.3203 C.ar    1  UNL1        0.0795
     22 C          18.1520   69.6180   -3.7681 C.ar    1  UNL1        0.2626
     23 H          16.2754   69.0016   -4.3326 H       1  UNL1        0.1734
     24 O          23.8302   75.0592   -8.1809 O.3     1  UNL1       -0.2703
     25 P          24.7775   76.1230   -8.9447 P.3     1  UNL1        0.2208
     26 O          26.2514   75.4705   -8.8107 O.3     1  UNL1       -0.4371
     27 O          24.6716   77.5275   -8.4235 O.2     1  UNL1       -0.5170
     28 O          24.3993   75.9607  -10.5051 O.3     1  UNL1       -0.2858
     29 O          25.2532   74.7218  -12.3315 O.3     1  UNL1       -0.3226
     30 O          24.4538   78.4086  -14.0774 O.3     1  UNL1       -0.3794
     31 O          25.6362   78.2549  -11.4158 O.3     1  UNL1       -0.3775
     32 O          25.1951   75.8950  -14.9504 O.3     1  UNL1       -0.3792
     33 C          24.2945   77.2963  -13.2011 C.3     1  UNL1        0.1718
     34 C          25.5250   77.1450  -12.3004 C.3     1  UNL1        0.1968
     35 C          24.0996   76.0297  -14.0390 C.3     1  UNL1        0.1723
     36 C          25.4394   75.8544  -11.4762 C.3     1  UNL1        0.2706
     37 C          24.0693   74.8081  -13.1231 C.3     1  UNL1        0.1830
     38 H          23.6548   78.4645  -14.6287 H       1  UNL1        0.2105
     39 H          26.4213   78.1104  -10.8611 H       1  UNL1        0.2106
     40 H          25.9805   75.6154  -14.4502 H       1  UNL1        0.2106
     41 O          23.2826   73.7056  -15.0387 O.co2   1  UNL1       -0.5466
     42 O          24.5455   72.4863  -13.5841 O.co2   1  UNL1       -0.5466
     43 C          24.0105   73.5366  -13.9085 C.2     1  UNL1        0.0799
@<TRIPOS>UNITY_ATOM_ATTR
41 1
charge -1
@<TRIPOS>BOND
     1     1     4    1
     2     1    24    1
     3     1     2    1
     4     1     3    2
     5    25    28    1
     6    25    24    1
     7    25    26    1
     8    25    27    2
     9     6    11    1
    10     6    12    1
    11    29    36    1
    12    29    37    1
    13     7     9    1
    14     7    13    1
    15     8    10    1
    16     8    14    1
    17     4     5    1
    18    28    36    1
    19    30    33    1
    20    30    38    1
    21    31    34    1
    22    31    39    1
    23    32    35    1
    24    32    40    1
    25    41    43   ar
    26    15    19    2
    27    42    43   ar
    28    16    22    2
    29    17    12    1
    30    17    19   ar
    31    17    20   ar
    32    18    19   ar
    33    18    22   ar
    34    18    23    1
    35     9    10    1
    36     9    11    1
    37    10    12    1
    38    11     5    1
    39    33    34    1
    40    33    35    1
    41    34    36    1
    42    35    37    1
    43    37    43    1
    44    20    21   ar
    45    21    22   ar
@<TRIPOS>MOLECULE
UDP-glaA
 43 45 0 0 0
SMALL
GASTEIGER

@<TRIPOS>ATOM
      1 P          20.1825   73.1630   -4.7502 P.3     1  UNL1        0.2189
      2 O          19.0033   72.4063   -3.9414 O.3     1  UNL1       -0.4371
      3 O          20.4850   74.5537   -4.2743 O.2     1  UNL1       -0.5170
      4 O          19.7388   73.0313   -6.2999 O.3     1  UNL1       -0.3112
      5 C          20.6392   72.4280   -7.2134 C.3     1  UNL1        0.1811
      6 O          18.5183   71.3898   -7.6588 O.3     1  UNL1       -0.3308
      7 O          19.4411   71.1559  -10.5023 O.3     1  UNL1       -0.3794
      8 O          17.7861   73.3214  -10.5896 O.3     1  UNL1       -0.3779
      9 C          19.6803   72.1994   -9.5580 C.3     1  UNL1        0.1713
     10 C          18.4295   73.0307   -9.3660 C.3     1  UNL1        0.1895
     11 C          19.8525   71.5610   -8.1860 C.3     1  UNL1        0.1764
     12 C          17.5932   72.1392   -8.4638 C.3     1  UNL1        0.2383
     13 H          20.2554   70.6279  -10.5631 H       1  UNL1        0.2105
     14 H          18.4234   73.7972  -11.1495 H       1  UNL1        0.2106
     15 O          16.4510   71.1374   -6.0833 O.2     1  UNL1       -0.2464
     16 O          14.2785   75.1126   -5.2367 O.2     1  UNL1       -0.2670
     17 N          16.7261   72.8905   -7.6019 N.ar    1  UNL1       -0.2551
     18 N          15.3695   73.1174   -5.6636 N.ar    1  UNL1       -0.2743
     19 C          16.2048   72.2940   -6.4301 C.ar    1  UNL1        0.3323
     20 C          16.4000   74.2040   -7.9209 C.ar    1  UNL1        0.0869
     21 C          15.6025   74.9762   -7.1795 C.ar    1  UNL1        0.0795
     22 C          15.0160   74.4290   -5.9402 C.ar    1  UNL1        0.2626
     23 H          14.9827   72.7093   -4.8168 H       1  UNL1        0.1734
     24 O          21.4204   72.1285   -4.6378 O.3     1  UNL1       -0.2703
     25 P          22.5511   71.9481   -3.4970 P.3     1  UNL1        0.2208
     26 O          23.8089   72.7764   -4.0869 O.3     1  UNL1       -0.4371
     27 O          22.8567   70.5183   -3.1532 O.2     1  UNL1       -0.5170
     28 O          22.0245   72.8344   -2.2555 O.3     1  UNL1       -0.2858
     29 O          21.3473   71.1416   -0.7472 O.3     1  UNL1       -0.3226
     30 O          21.1512   74.5503    1.6238 O.3     1  UNL1       -0.3794
     31 O          20.2319   74.6153   -1.1432 O.3     1  UNL1       -0.3775
     32 O          20.9446   71.8232    2.0118 O.3     1  UNL1       -0.3792
     33 C          21.6244   73.6687    0.6093 C.3     1  UNL1        0.1718
     34 C          20.5301   73.4176   -0.4336 C.3     1  UNL1        0.1968
     35 C          22.0432   72.3465    1.2580 C.3     1  UNL1        0.1723
     36 C          20.9689   72.3399   -1.4327 C.3     1  UNL1        0.2706
     37 C          22.4191   71.3392    0.1735 C.3     1  UNL1        0.1830
     38 H          21.8739   74.6785    2.2616 H       1  UNL1        0.2105
     39 H          19.5432   74.4056   -1.7963 H       1  UNL1        0.2106
     40 H          20.2827   71.4740    1.3912 H       1  UNL1        0.2106
     41 O          23.3589   70.1125    1.9387 O.co2   1  UNL1       -0.5466
     42 O          22.4067   68.9257    0.2411 O.co2   1  UNL1       -0.5466
     43 C          22.7107   69.9924    0.7550 C.2     1  UNL1        0.0799
@<TRIPOS>UNITY_ATOM_ATTR
41 1
charge -1
@<TRIPOS>BOND
     1     1     4    1
     2     1    24    1
     3     1     2    1
     4     1     3    2
     5    25    28    1
     6    25    24    1
     7    25    26    1
     8    25    27    2
     9     6    11    1
    10     6    12    1
    11    29    36    1
    12    29    37    1
    13     7     9    1
    14     7    13    1
    15     8    10    1
    16     8    14    1
    17     4     5    1
    18    28    36    1
    19    30    33    1
    20    30    38    1
    21    31    34    1
    22    31    39    1
    23    32    35    1
    24    32    40    1
    25    41    43   ar
    26    15    19    2
    27    42    43   ar
    28    16    22    2
    29    17    12    1
    30    17    19   ar
    31    17    20   ar
    32    18    19   ar
    33    18    22   ar
    34    18    23    1
    35     9    10    1
    36     9    11    1
    37    10    12    1
    38    11     5    1
    39    33    34    1
    40    33    35    1
    41    34    36    1
    42    35    37    1
    43    37    43    1
    44    20    21   ar
    45    21    22   ar
@<TRIPOS>MOLECULE
UDP-glaA
 43 45 0 0 0
SMALL
GASTEIGER

@<TRIPOS>ATOM
      1 P          22.5910   72.7392   -3.9168 P.3     1  UNL1        0.2189
      2 O          22.8711   73.0448   -5.4806 O.3     1  UNL1       -0.4371
      3 O          23.2989   71.5339   -3.3707 O.2     1  UNL1       -0.5170
      4 O          20.9776   72.7165   -3.8071 O.3     1  UNL1       -0.3112
      5 C          20.3512   71.5637   -3.2704 C.3     1  UNL1        0.1811
      6 O          18.4057   72.3396   -4.4481 O.3     1  UNL1       -0.3308
      7 O          16.8002   70.9079   -2.3591 O.3     1  UNL1       -0.3794
      8 O          16.7160   69.1772   -4.4647 O.3     1  UNL1       -0.3779
      9 C          18.0454   70.5388   -2.9516 C.3     1  UNL1        0.1713
     10 C          17.8277   70.0431   -4.3656 C.3     1  UNL1        0.1895
     11 C          18.8520   71.8103   -3.1801 C.3     1  UNL1        0.1764
     12 C          17.6263   71.3417   -5.1279 C.3     1  UNL1        0.2383
     13 H          16.9931   71.2548   -1.4714 H       1  UNL1        0.2105
     14 H          16.8750   68.4271   -3.8662 H       1  UNL1        0.2106
     15 O          16.0955   70.2456   -7.2328 O.2     1  UNL1       -0.2464
     16 O          19.4254   71.0474  -10.3163 O.2     1  UNL1       -0.2670
     17 N          18.0682   71.2519   -6.4903 N.ar    1  UNL1       -0.2551
     18 N          17.7549   70.6451   -8.7668 N.ar    1  UNL1       -0.2743
     19 C          17.2227   70.6829   -7.4712 C.ar    1  UNL1        0.3323
     20 C          19.3274   71.7245   -6.8431 C.ar    1  UNL1        0.0869
     21 C          19.8202   71.6817   -8.0829 C.ar    1  UNL1        0.0795
     22 C          19.0013   71.1021   -9.1660 C.ar    1  UNL1        0.2626
     23 H          17.1648   70.2397   -9.4882 H       1  UNL1        0.1734
     24 O          22.9841   74.1339   -3.1990 O.3     1  UNL1       -0.2703
     25 P          24.4236   74.8154   -2.9230 P.3     1  UNL1        0.2208
     26 O          25.4000   74.0547   -3.9641 O.3     1  UNL1       -0.4371
     27 O          24.8719   74.7495   -1.4911 O.2     1  UNL1       -0.5170
     28 O          24.2868   76.3121   -3.5104 O.3     1  UNL1       -0.2858
     29 O          26.1100   77.4060   -2.4719 O.3     1  UNL1       -0.3226
     30 O          28.0252   74.5695   -4.8311 O.3     1  UNL1       -0.3794
     31 O          25.7204   76.0351   -5.8537 O.3     1  UNL1       -0.3775
     32 O          28.7567   76.3673   -2.8657 O.3     1  UNL1       -0.3792
     33 C          27.0152   75.1386   -4.0026 C.3     1  UNL1        0.1718
     34 C          26.4209   76.3862   -4.6650 C.3     1  UNL1        0.1968
     35 C          27.6329   75.5071   -2.6509 C.3     1  UNL1        0.1723
     36 C          25.4582   77.1022   -3.7095 C.3     1  UNL1        0.2706
     37 C          26.6028   76.2474   -1.8007 C.3     1  UNL1        0.1830
     38 H          28.3739   73.7862   -4.3723 H       1  UNL1        0.2105
     39 H          25.3550   76.8529   -6.2313 H       1  UNL1        0.2106
     40 H          28.4285   77.2473   -3.1169 H       1  UNL1        0.2106
     41 O          28.3970   77.3357   -0.7517 O.co2   1  UNL1       -0.5466
     42 O          26.6882   76.6295    0.5819 O.co2   1  UNL1       -0.5466
     43 C          27.2016   76.7408   -0.5220 C.2     1  UNL1        0.0799
@<TRIPOS>UNITY_ATOM_ATTR
41 1
charge -1
@<TRIPOS>BOND
     1     1     4    1
     2     1    24    1
     3     1     2    1
     4     1     3    2
     5    25    28    1
     6    25    24    1
     7    25    26    1
     8    25    27    2
     9     6    11    1
    10     6    12    1
    11    29    36    1
    12    29    37    1
    13     7     9    1
    14     7    13    1
    15     8    10    1
    16     8    14    1
    17     4     5    1
    18    28    36    1
    19    30    33    1
    20    30    38    1
    21    31    34    1
    22    31    39    1
    23    32    35    1
    24    32    40    1
    25    41    43   ar
    26    15    19    2
    27    42    43   ar
    28    16    22    2
    29    17    12    1
    30    17    19   ar
    31    17    20   ar
    32    18    19   ar
    33    18    22   ar
    34    18    23    1
    35     9    10    1
    36     9    11    1
    37    10    12    1
    38    11     5    1
    39    33    34    1
    40    33    35    1
    41    34    36    1
    42    35    37    1
    43    37    43    1
    44    20    21   ar
    45    21    22   ar
@<TRIPOS>MOLECULE
UDP-glaA
 43 45 0 0 0
SMALL
GASTEIGER

@<TRIPOS>ATOM
      1 P          22.4497   73.0295   -4.6187 P.3     1  UNL1        0.2189
      2 O          22.4222   73.8349   -6.0216 O.3     1  UNL1       -0.4371
      3 O          23.7997   72.5184   -4.2085 O.2     1  UNL1       -0.5170
      4 O          21.2962   71.9090   -4.7900 O.3     1  UNL1       -0.3112
      5 C          20.7638   71.3012   -3.6254 C.3     1  UNL1        0.1811
      6 O          18.8382   72.1965   -4.7499 O.3     1  UNL1       -0.3308
      7 O          17.2297   71.1046   -2.4670 O.3     1  UNL1       -0.3794
      8 O          16.8301   69.2444   -4.4203 O.3     1  UNL1       -0.3779
      9 C          18.3889   70.5597   -3.0972 C.3     1  UNL1        0.1713
     10 C          18.0302   69.9889   -4.4529 C.3     1  UNL1        0.1895
     11 C          19.3074   71.7157   -3.4710 C.3     1  UNL1        0.1764
     12 C          17.9168   71.2426   -5.3034 C.3     1  UNL1        0.2383
     13 H          17.5145   71.4923   -1.6219 H       1  UNL1        0.2105
     14 H          16.9480   68.5272   -3.7740 H       1  UNL1        0.2106
     15 O          16.0891   70.3811   -7.2764 O.2     1  UNL1       -0.2464
     16 O          19.3406   70.3649  -10.5422 O.2     1  UNL1       -0.2670
     17 N          18.2583   71.0060   -6.6770 N.ar    1  UNL1       -0.2551
     18 N          17.7095   70.3731   -8.9012 N.ar    1  UNL1       -0.2743
     19 C          17.2658   70.5739   -7.5875 C.ar    1  UNL1        0.3323
     20 C          19.5650   71.2019   -7.1100 C.ar    1  UNL1        0.0869
     21 C          19.9723   71.0066   -8.3661 C.ar    1  UNL1        0.0795
     22 C          18.9982   70.5542   -9.3791 C.ar    1  UNL1        0.2626
     23 H          17.0132   70.0618   -9.5730 H       1  UNL1        0.1734
     24 O          21.7846   74.0801   -3.5848 O.3     1  UNL1       -0.2703
     25 P          22.3516   74.7220   -2.2139 P.3     1  UNL1        0.2208
     26 O          21.3644   75.9769   -1.9557 O.3     1  UNL1       -0.4371
     27 O          23.8098   75.0790   -2.2579 O.2     1  UNL1       -0.5170
     28 O          21.9612   73.6530   -1.0698 O.3     1  UNL1       -0.2858
     29 O          22.7534   73.8092    1.1544 O.3     1  UNL1       -0.3226
     30 O          21.7608   69.7830    0.8640 O.3     1  UNL1       -0.3794
     31 O          23.0839   71.1462   -1.3490 O.3     1  UNL1       -0.3775
     32 O          22.5262   71.5199    2.8709 O.3     1  UNL1       -0.3792
     33 C          21.6787   71.1868    0.6335 C.3     1  UNL1        0.1718
     34 C          22.9581   71.6934   -0.0407 C.3     1  UNL1        0.1968
     35 C          21.4762   71.8978    1.9744 C.3     1  UNL1        0.1723
     36 C          22.9519   73.2241   -0.1368 C.3     1  UNL1        0.2706
     37 C          21.5281   73.4098    1.7665 C.3     1  UNL1        0.1830
     38 H          20.9329   69.5073    1.2931 H       1  UNL1        0.2105
     39 H          23.9005   71.5016   -1.7384 H       1  UNL1        0.2106
     40 H          23.3441   71.9670    2.5946 H       1  UNL1        0.2106
     41 O          20.6361   73.5111    3.9340 O.co2   1  UNL1       -0.5466
     42 O          22.0748   75.1713    3.3247 O.co2   1  UNL1       -0.5466
     43 C          21.4643   74.1436    3.0682 C.2     1  UNL1        0.0799
@<TRIPOS>UNITY_ATOM_ATTR
41 1
charge -1
@<TRIPOS>BOND
     1     1     4    1
     2     1    24    1
     3     1     2    1
     4     1     3    2
     5    25    28    1
     6    25    24    1
     7    25    26    1
     8    25    27    2
     9     6    11    1
    10     6    12    1
    11    29    36    1
    12    29    37    1
    13     7     9    1
    14     7    13    1
    15     8    10    1
    16     8    14    1
    17     4     5    1
    18    28    36    1
    19    30    33    1
    20    30    38    1
    21    31    34    1
    22    31    39    1
    23    32    35    1
    24    32    40    1
    25    41    43   ar
    26    15    19    2
    27    42    43   ar
    28    16    22    2
    29    17    12    1
    30    17    19   ar
    31    17    20   ar
    32    18    19   ar
    33    18    22   ar
    34    18    23    1
    35     9    10    1
    36     9    11    1
    37    10    12    1
    38    11     5    1
    39    33    34    1
    40    33    35    1
    41    34    36    1
    42    35    37    1
    43    37    43    1
    44    20    21   ar
    45    21    22   ar
@<TRIPOS>MOLECULE
UDP-glaA
 43 45 0 0 0
SMALL
GASTEIGER

@<TRIPOS>ATOM
      1 P          22.4067   73.2974   -5.1655 P.3     1  UNL1        0.2189
      2 O          22.8134   74.8004   -5.6048 O.3     1  UNL1       -0.4371
      3 O          23.4895   72.5268   -4.4686 O.2     1  UNL1       -0.5170
      4 O          21.8365   72.6346   -6.5261 O.3     1  UNL1       -0.3112
      5 C          20.9220   73.3804   -7.3114 C.3     1  UNL1        0.1811
      6 O          20.1177   71.1562   -7.7365 O.3     1  UNL1       -0.3308
      7 O          18.6233   72.3402  -10.0508 O.3     1  UNL1       -0.3794
      8 O          16.6821   72.0943   -8.1516 O.3     1  UNL1       -0.3779
      9 C          18.8913   72.9021   -8.7662 C.3     1  UNL1        0.1713
     10 C          18.0166   72.2513   -7.7156 C.3     1  UNL1        0.1895
     11 C          20.2846   72.4579   -8.3407 C.3     1  UNL1        0.1764
     12 C          18.7200   70.9225   -7.4979 C.3     1  UNL1        0.2383
     13 H          19.2324   72.7585  -10.6829 H       1  UNL1        0.2105
     14 H          16.3407   72.9778   -8.3732 H       1  UNL1        0.2106
     15 O          16.3563   69.7158   -6.5323 O.2     1  UNL1       -0.2464
     16 O          18.1843   69.0522   -2.3542 O.2     1  UNL1       -0.2670
     17 N          18.5508   70.4249   -6.1626 N.ar    1  UNL1       -0.2551
     18 N          17.2680   69.3867   -4.4522 N.ar    1  UNL1       -0.2743
     19 C          17.3231   69.8371   -5.7778 C.ar    1  UNL1        0.3323
     20 C          19.5948   70.5220   -5.2492 C.ar    1  UNL1        0.0869
     21 C          19.5268   70.0873   -3.9890 C.ar    1  UNL1        0.0795
     22 C          18.2794   69.4616   -3.5072 C.ar    1  UNL1        0.2626
     23 H          16.3947   68.9611   -4.1534 H       1  UNL1        0.1734
     24 O          21.0697   73.5265   -4.2852 O.3     1  UNL1       -0.2703
     25 P          20.8765   74.0378   -2.7641 P.3     1  UNL1        0.2208
     26 O          19.2823   74.2895   -2.6568 O.3     1  UNL1       -0.4371
     27 O          21.7178   75.2285   -2.4029 O.2     1  UNL1       -0.5170
     28 O          21.1457   72.7313   -1.8561 O.3     1  UNL1       -0.2858
     29 O          22.2793   73.2192    0.1629 O.3     1  UNL1       -0.3226
     30 O          22.2803   69.0624    0.1460 O.3     1  UNL1       -0.3794
     31 O          22.7819   70.5541   -2.3094 O.3     1  UNL1       -0.3775
     32 O          22.9552   71.0606    1.9298 O.3     1  UNL1       -0.3792
     33 C          21.8105   70.3871   -0.0879 C.3     1  UNL1        0.1718
     34 C          22.7734   71.1402   -1.0120 C.3     1  UNL1        0.1968
     35 C          21.6947   71.1156    1.2538 C.3     1  UNL1        0.1723
     36 C          22.3695   72.6150   -1.1317 C.3     1  UNL1        0.2706
     37 C          21.3295   72.5788    1.0135 C.3     1  UNL1        0.1830
     38 H          21.6431   68.6250    0.7361 H       1  UNL1        0.2105
     39 H          23.3962   71.0685   -2.8597 H       1  UNL1        0.2106
     40 H          23.5693   71.6716    1.4885 H       1  UNL1        0.2106
     41 O          22.5288   73.9683    2.4746 O.co2   1  UNL1       -0.5466
     42 O          20.3886   73.4461    3.0610 O.co2   1  UNL1       -0.5466
     43 C          21.3324   73.3602    2.2888 C.2     1  UNL1        0.0799
@<TRIPOS>UNITY_ATOM_ATTR
41 1
charge -1
@<TRIPOS>BOND
     1     1     4    1
     2     1    24    1
     3     1     2    1
     4     1     3    2
     5    25    28    1
     6    25    24    1
     7    25    26    1
     8    25    27    2
     9     6    11    1
    10     6    12    1
    11    29    36    1
    12    29    37    1
    13     7     9    1
    14     7    13    1
    15     8    10    1
    16     8    14    1
    17     4     5    1
    18    28    36    1
    19    30    33    1
    20    30    38    1
    21    31    34    1
    22    31    39    1
    23    32    35    1
    24    32    40    1
    25    41    43   ar
    26    15    19    2
    27    42    43   ar
    28    16    22    2
    29    17    12    1
    30    17    19   ar
    31    17    20   ar
    32    18    19   ar
    33    18    22   ar
    34    18    23    1
    35     9    10    1
    36     9    11    1
    37    10    12    1
    38    11     5    1
    39    33    34    1
    40    33    35    1
    41    34    36    1
    42    35    37    1
    43    37    43    1
    44    20    21   ar
    45    21    22   ar
@<TRIPOS>MOLECULE
UDP-glaA
 43 45 0 0 0
SMALL
GASTEIGER

@<TRIPOS>ATOM
      1 P          19.7415   72.7572   -4.7660 P.3     1  UNL1        0.2189
      2 O          19.3526   71.5380   -3.7762 O.3     1  UNL1       -0.4371
      3 O          19.2109   74.0996   -4.3555 O.2     1  UNL1       -0.5170
      4 O          19.2813   72.2359   -6.2261 O.3     1  UNL1       -0.3112
      5 C          19.1307   70.8414   -6.4310 C.3     1  UNL1        0.1811
      6 O          17.0098   70.8686   -7.5604 O.3     1  UNL1       -0.3308
      7 O          18.5811   70.9443  -10.1131 O.3     1  UNL1       -0.3794
      8 O          17.8329   73.5474   -9.7971 O.3     1  UNL1       -0.3779
      9 C          18.8685   71.5587   -8.8571 C.3     1  UNL1        0.1713
     10 C          17.9630   72.7521   -8.6368 C.3     1  UNL1        0.1895
     11 C          18.4175   70.6087   -7.7554 C.3     1  UNL1        0.1764
     12 C          16.6573   72.0877   -8.2348 C.3     1  UNL1        0.2383
     13 H          19.1565   70.1644  -10.1926 H       1  UNL1        0.2105
     14 H          18.7241   73.8437  -10.0502 H       1  UNL1        0.2106
     15 O          14.8510   74.0871   -9.0805 O.2     1  UNL1       -0.2464
     16 O          13.7198   75.1571   -4.7430 O.2     1  UNL1       -0.2670
     17 N          15.8774   72.9033   -7.3483 N.ar    1  UNL1       -0.2551
     18 N          14.2893   74.6190   -6.9201 N.ar    1  UNL1       -0.2743
     19 C          15.0002   73.8800   -7.8749 C.ar    1  UNL1        0.3323
     20 C          15.9860   72.7316   -5.9728 C.ar    1  UNL1        0.0869
     21 C          15.3010   73.4437   -5.0753 C.ar    1  UNL1        0.0795
     22 C          14.3640   74.4847   -5.5423 C.ar    1  UNL1        0.2626
     23 H          13.6531   75.3273   -7.2758 H       1  UNL1        0.1734
     24 O          21.3544   72.6642   -4.8390 O.3     1  UNL1       -0.2703
     25 P          22.4958   73.2497   -3.8557 P.3     1  UNL1        0.2208
     26 O          22.3556   74.8509   -4.0365 O.3     1  UNL1       -0.4371
     27 O          23.8731   72.7138   -4.1228 O.2     1  UNL1       -0.5170
     28 O          21.9434   72.9569   -2.3680 O.3     1  UNL1       -0.2858
     29 O          22.5941   73.6407   -0.1981 O.3     1  UNL1       -0.3226
     30 O          21.5687   69.6591    0.4143 O.3     1  UNL1       -0.3794
     31 O          23.0483   70.4584   -1.9685 O.3     1  UNL1       -0.3775
     32 O          22.2275   71.8261    1.9954 O.3     1  UNL1       -0.3792
     33 C          21.5201   70.9672   -0.1486 C.3     1  UNL1        0.1718
     34 C          22.8466   71.3015   -0.8392 C.3     1  UNL1        0.1968
     35 C          21.2419   71.9769    0.9683 C.3     1  UNL1        0.1723
     36 C          22.8669   72.7651   -1.2972 C.3     1  UNL1        0.2706
     37 C          21.3270   73.3959    0.4103 C.3     1  UNL1        0.1830
     38 H          20.7115   69.4917    0.8418 H       1  UNL1        0.2105
     39 H          23.8927   70.7126   -2.3773 H       1  UNL1        0.2106
     40 H          23.0672   72.1964    1.6746 H       1  UNL1        0.2106
     41 O          20.2545   74.0376    2.3957 O.co2   1  UNL1       -0.5466
     42 O          21.8323   75.4566    1.5626 O.co2   1  UNL1       -0.5466
     43 C          21.1901   74.4188    1.4928 C.2     1  UNL1        0.0799
@<TRIPOS>UNITY_ATOM_ATTR
41 1
charge -1
@<TRIPOS>BOND
     1     1     4    1
     2     1    24    1
     3     1     2    1
     4     1     3    2
     5    25    28    1
     6    25    24    1
     7    25    26    1
     8    25    27    2
     9     6    11    1
    10     6    12    1
    11    29    36    1
    12    29    37    1
    13     7     9    1
    14     7    13    1
    15     8    10    1
    16     8    14    1
    17     4     5    1
    18    28    36    1
    19    30    33    1
    20    30    38    1
    21    31    34    1
    22    31    39    1
    23    32    35    1
    24    32    40    1
    25    41    43   ar
    26    15    19    2
    27    42    43   ar
    28    16    22    2
    29    17    12    1
    30    17    19   ar
    31    17    20   ar
    32    18    19   ar
    33    18    22   ar
    34    18    23    1
    35     9    10    1
    36     9    11    1
    37    10    12    1
    38    11     5    1
    39    33    34    1
    40    33    35    1
    41    34    36    1
    42    35    37    1
    43    37    43    1
    44    20    21   ar
    45    21    22   ar
@<TRIPOS>MOLECULE
UDP-glaA
 43 45 0 0 0
SMALL
GASTEIGER

@<TRIPOS>ATOM
      1 P          22.9490   71.9584   -3.2589 P.3     1  UNL1        0.2189
      2 O          23.7456   72.8944   -4.3109 O.3     1  UNL1       -0.4371
      3 O          23.4041   70.5292   -3.2124 O.2     1  UNL1       -0.5170
      4 O          21.3926   72.1887   -3.6334 O.3     1  UNL1       -0.3112
      5 C          20.6599   71.1053   -4.1799 C.3     1  UNL1        0.1811
      6 O          18.5066   71.7509   -3.3310 O.3     1  UNL1       -0.3308
      7 O          18.2348   68.9161   -2.3920 O.3     1  UNL1       -0.3794
      8 O          16.7377   68.9346   -4.6710 O.3     1  UNL1       -0.3779
      9 C          18.8532   69.4201   -3.5757 C.3     1  UNL1        0.1713
     10 C          17.8008   69.8595   -4.5717 C.3     1  UNL1        0.1895
     11 C          19.5316   70.7382   -3.2265 C.3     1  UNL1        0.1764
     12 C          17.3609   71.1954   -3.9975 C.3     1  UNL1        0.2383
     13 H          18.9454   68.6844   -1.7699 H       1  UNL1        0.2105
     14 H          17.1174   68.0798   -4.9381 H       1  UNL1        0.2106
     15 O          14.8794   72.5432   -3.9646 O.2     1  UNL1       -0.2464
     16 O          15.7808   74.6816   -7.9462 O.2     1  UNL1       -0.2670
     17 N          16.9216   72.1103   -5.0121 N.ar    1  UNL1       -0.2551
     18 N          15.3297   73.6068   -5.9476 N.ar    1  UNL1       -0.2743
     19 C          15.6568   72.7339   -4.9015 C.ar    1  UNL1        0.3323
     20 C          17.7408   72.3817   -6.1024 C.ar    1  UNL1        0.0869
     21 C          17.4147   73.2169   -7.0913 C.ar    1  UNL1        0.0795
     22 C          16.1108   73.9082   -7.0524 C.ar    1  UNL1        0.2626
     23 H          14.4247   74.0660   -5.8894 H       1  UNL1        0.1734
     24 O          23.1097   72.7622   -1.8648 O.3     1  UNL1       -0.2703
     25 P          22.4153   74.1241   -1.3400 P.3     1  UNL1        0.2208
     26 O          22.6622   75.1596   -2.5578 O.3     1  UNL1       -0.4371
     27 O          22.9219   74.6005   -0.0088 O.2     1  UNL1       -0.5170
     28 O          20.8316   73.8172   -1.3796 O.3     1  UNL1       -0.2858
     29 O          20.5771   71.8274   -0.1245 O.3     1  UNL1       -0.3226
     30 O          22.2883   74.3991    2.6572 O.3     1  UNL1       -0.3794
     31 O          20.2223   75.3524    0.8327 O.3     1  UNL1       -0.3775
     32 O          21.6782   71.7084    2.5235 O.3     1  UNL1       -0.3792
     33 C          22.0189   73.8124    1.3869 C.3     1  UNL1        0.1718
     34 C          20.5391   73.9778    1.0249 C.3     1  UNL1        0.1968
     35 C          22.3821   72.3259    1.4409 C.3     1  UNL1        0.1723
     36 C          20.2032   73.2029   -0.2554 C.3     1  UNL1        0.2706
     37 C          21.9685   71.6489    0.1361 C.3     1  UNL1        0.1830
     38 H          23.2333   74.2689    2.8460 H       1  UNL1        0.2105
     39 H          19.2808   75.4063    0.5969 H       1  UNL1        0.2106
     40 H          20.7435   71.6175    2.2723 H       1  UNL1        0.2106
     41 O          21.4622   69.5423   -0.7640 O.co2   1  UNL1       -0.5466
     42 O          22.9169   69.5994    0.9904 O.co2   1  UNL1       -0.5466
     43 C          22.1860   70.1702    0.1939 C.2     1  UNL1        0.0799
@<TRIPOS>UNITY_ATOM_ATTR
41 1
charge -1
@<TRIPOS>BOND
     1     1     4    1
     2     1    24    1
     3     1     2    1
     4     1     3    2
     5    25    28    1
     6    25    24    1
     7    25    26    1
     8    25    27    2
     9     6    11    1
    10     6    12    1
    11    29    36    1
    12    29    37    1
    13     7     9    1
    14     7    13    1
    15     8    10    1
    16     8    14    1
    17     4     5    1
    18    28    36    1
    19    30    33    1
    20    30    38    1
    21    31    34    1
    22    31    39    1
    23    32    35    1
    24    32    40    1
    25    41    43   ar
    26    15    19    2
    27    42    43   ar
    28    16    22    2
    29    17    12    1
    30    17    19   ar
    31    17    20   ar
    32    18    19   ar
    33    18    22   ar
    34    18    23    1
    35     9    10    1
    36     9    11    1
    37    10    12    1
    38    11     5    1
    39    33    34    1
    40    33    35    1
    41    34    36    1
    42    35    37    1
    43    37    43    1
    44    20    21   ar
    45    21    22   ar
@<TRIPOS>MOLECULE
UDP-glaA
 43 45 0 0 0
SMALL
GASTEIGER

@<TRIPOS>ATOM
      1 P          19.6694   74.8535   -3.4984 P.3     1  UNL1        0.2189
      2 O          19.8373   75.4290   -1.9957 O.3     1  UNL1       -0.4371
      3 O          18.8648   75.7204   -4.4220 O.2     1  UNL1       -0.5170
      4 O          19.1115   73.3512   -3.2802 O.3     1  UNL1       -0.3112
      5 C          17.7192   73.1199   -3.4119 C.3     1  UNL1        0.1811
      6 O          17.0404   71.1096   -4.5399 O.3     1  UNL1       -0.3308
      7 O          18.2384   69.6284   -2.2243 O.3     1  UNL1       -0.3794
      8 O          20.1681   69.4033   -4.1377 O.3     1  UNL1       -0.3779
      9 C          18.6795   70.8322   -2.8520 C.3     1  UNL1        0.1713
     10 C          19.3102   70.5242   -4.1936 C.3     1  UNL1        0.1895
     11 C          17.4468   71.6306   -3.2551 C.3     1  UNL1        0.1764
     12 C          18.0912   70.2836   -5.0678 C.3     1  UNL1        0.2383
     13 H          17.8076   69.8782   -1.3890 H       1  UNL1        0.2105
     14 H          20.8571   69.5947   -3.4783 H       1  UNL1        0.2106
     15 O          16.1952   69.9694   -7.1371 O.2     1  UNL1       -0.2464
     16 O          19.0843   71.6819  -10.2928 O.2     1  UNL1       -0.2670
     17 N          18.3210   70.6395   -6.4389 N.ar    1  UNL1       -0.2551
     18 N          17.6353   70.8219   -8.7072 N.ar    1  UNL1       -0.2743
     19 C          17.3030   70.4405   -7.4006 C.ar    1  UNL1        0.3323
     20 C          19.5447   71.1793   -6.8192 C.ar    1  UNL1        0.0869
     21 C          19.8460   71.5383   -8.0690 C.ar    1  UNL1        0.0795
     22 C          18.8385   71.3625   -9.1338 C.ar    1  UNL1        0.2626
     23 H          16.9188   70.6873   -9.4155 H       1  UNL1        0.1734
     24 O          21.1982   74.6088   -3.9655 O.3     1  UNL1       -0.2703
     25 P          22.2211   73.3968   -3.6536 P.3     1  UNL1        0.2208
     26 O          23.6296   74.1535   -3.4098 O.3     1  UNL1       -0.4371
     27 O          22.2626   72.3367   -4.7167 O.2     1  UNL1       -0.5170
     28 O          21.7874   72.8610   -2.1945 O.3     1  UNL1       -0.2858
     29 O          22.5159   73.5915   -0.0649 O.3     1  UNL1       -0.3226
     30 O          21.7144   69.5707    0.6207 O.3     1  UNL1       -0.3794
     31 O          23.0293   70.4208   -1.8399 O.3     1  UNL1       -0.3775
     32 O          22.3499   71.7786    2.1541 O.3     1  UNL1       -0.3792
     33 C          21.5745   70.8707    0.0543 C.3     1  UNL1        0.1718
     34 C          22.8461   71.2620   -0.7060 C.3     1  UNL1        0.1968
     35 C          21.3066   71.8746    1.1788 C.3     1  UNL1        0.1723
     36 C          22.7730   72.7214   -1.1721 C.3     1  UNL1        0.2706
     37 C          21.2950   73.2917    0.6097 C.3     1  UNL1        0.1830
     38 H          20.8894   69.3662    1.0931 H       1  UNL1        0.2105
     39 H          23.8384   70.7115   -2.2933 H       1  UNL1        0.2106
     40 H          23.1533   72.1857    1.7882 H       1  UNL1        0.2106
     41 O          20.1526   75.1733    1.4212 O.co2   1  UNL1       -0.5466
     42 O          21.8702   74.3745    2.6897 O.co2   1  UNL1       -0.5466
     43 C          21.1655   74.3153    1.6925 C.2     1  UNL1        0.0799
@<TRIPOS>UNITY_ATOM_ATTR
41 1
charge -1
@<TRIPOS>BOND
     1     1     4    1
     2     1    24    1
     3     1     2    1
     4     1     3    2
     5    25    28    1
     6    25    24    1
     7    25    26    1
     8    25    27    2
     9     6    11    1
    10     6    12    1
    11    29    36    1
    12    29    37    1
    13     7     9    1
    14     7    13    1
    15     8    10    1
    16     8    14    1
    17     4     5    1
    18    28    36    1
    19    30    33    1
    20    30    38    1
    21    31    34    1
    22    31    39    1
    23    32    35    1
    24    32    40    1
    25    41    43   ar
    26    15    19    2
    27    42    43   ar
    28    16    22    2
    29    17    12    1
    30    17    19   ar
    31    17    20   ar
    32    18    19   ar
    33    18    22   ar
    34    18    23    1
    35     9    10    1
    36     9    11    1
    37    10    12    1
    38    11     5    1
    39    33    34    1
    40    33    35    1
    41    34    36    1
    42    35    37    1
    43    37    43    1
    44    20    21   ar
    45    21    22   ar
@<TRIPOS>MOLECULE
UDP-glaA
 43 45 0 0 0
SMALL
GASTEIGER

@<TRIPOS>ATOM
      1 P          18.5471   71.0674   -3.6346 P.3     1  UNL1        0.2189
      2 O          18.3014   69.7521   -2.7253 O.3     1  UNL1       -0.4371
      3 O          17.9931   72.3416   -3.0674 O.2     1  UNL1       -0.5170
      4 O          17.9864   70.6443   -5.0914 O.3     1  UNL1       -0.3112
      5 C          18.6439   71.1466   -6.2423 C.3     1  UNL1        0.1811
      6 O          18.6191   73.4679   -6.8628 O.3     1  UNL1       -0.3308
      7 O          16.2366   72.7972   -8.5555 O.3     1  UNL1       -0.3794
      8 O          18.2582   72.8907  -10.3831 O.3     1  UNL1       -0.3779
      9 C          17.3999   72.0159   -8.2834 C.3     1  UNL1        0.1713
     10 C          18.5876   72.5578   -9.0504 C.3     1  UNL1        0.1895
     11 C          17.8099   72.2713   -6.8390 C.3     1  UNL1        0.1764
     12 C          18.9704   73.7728   -8.2226 C.3     1  UNL1        0.2383
     13 H          15.5131   72.4380   -8.0140 H       1  UNL1        0.2105
     14 H          17.9206   72.0850  -10.8111 H       1  UNL1        0.2106
     15 O          21.0038   71.8130   -8.2076 O.2     1  UNL1       -0.2464
     16 O          24.3260   74.9956   -8.4787 O.2     1  UNL1       -0.2670
     17 N          20.3747   74.0609   -8.2888 N.ar    1  UNL1       -0.2551
     18 N          22.6568   73.3991   -8.3421 N.ar    1  UNL1       -0.2743
     19 C          21.3143   73.0038   -8.2739 C.ar    1  UNL1        0.3323
     20 C          20.8087   75.3796   -8.3673 C.ar    1  UNL1        0.0869
     21 C          22.0923   75.7403   -8.4322 C.ar    1  UNL1        0.0795
     22 C          23.1370   74.6972   -8.4209 C.ar    1  UNL1        0.2626
     23 H          23.3500   72.6558   -8.3322 H       1  UNL1        0.1734
     24 O          20.1501   71.0661   -3.8480 O.3     1  UNL1       -0.2703
     25 P          21.2259   72.2717   -3.8089 P.3     1  UNL1        0.2208
     26 O          20.3305   73.5787   -4.1348 O.3     1  UNL1       -0.4371
     27 O          22.3997   72.0799   -4.7261 O.2     1  UNL1       -0.5170
     28 O          21.6154   72.4218   -2.2502 O.3     1  UNL1       -0.2858
     29 O          21.2316   70.9118   -0.4691 O.3     1  UNL1       -0.3226
     30 O          21.0821   74.5906    1.4604 O.3     1  UNL1       -0.3794
     31 O          19.8475   74.2400   -1.1585 O.3     1  UNL1       -0.3775
     32 O          21.1049   71.9323    2.2106 O.3     1  UNL1       -0.3792
     33 C          21.4932   73.6077    0.5144 C.3     1  UNL1        0.1718
     34 C          20.3052   73.1642   -0.3461 C.3     1  UNL1        0.1968
     35 C          22.0717   72.4067    1.2677 C.3     1  UNL1        0.1723
     36 C          20.6972   71.9873   -1.2481 C.3     1  UNL1        0.2706
     37 C          22.3867   71.2850    0.2805 C.3     1  UNL1        0.1830
     38 H          21.8633   74.8395    1.9832 H       1  UNL1        0.2105
     39 H          19.1038   73.9102   -1.6904 H       1  UNL1        0.2106
     40 H          20.4008   71.4701    1.7251 H       1  UNL1        0.2106
     41 O          22.4629   68.9402    0.2936 O.co2   1  UNL1       -0.5466
     42 O          23.4501   70.0208    2.0414 O.co2   1  UNL1       -0.5466
     43 C          22.8331   70.0442    0.9863 C.2     1  UNL1        0.0799
@<TRIPOS>UNITY_ATOM_ATTR
41 1
charge -1
@<TRIPOS>BOND
     1     1     4    1
     2     1    24    1
     3     1     2    1
     4     1     3    2
     5    25    28    1
     6    25    24    1
     7    25    26    1
     8    25    27    2
     9     6    11    1
    10     6    12    1
    11    29    36    1
    12    29    37    1
    13     7     9    1
    14     7    13    1
    15     8    10    1
    16     8    14    1
    17     4     5    1
    18    28    36    1
    19    30    33    1
    20    30    38    1
    21    31    34    1
    22    31    39    1
    23    32    35    1
    24    32    40    1
    25    41    43   ar
    26    15    19    2
    27    42    43   ar
    28    16    22    2
    29    17    12    1
    30    17    19   ar
    31    17    20   ar
    32    18    19   ar
    33    18    22   ar
    34    18    23    1
    35     9    10    1
    36     9    11    1
    37    10    12    1
    38    11     5    1
    39    33    34    1
    40    33    35    1
    41    34    36    1
    42    35    37    1
    43    37    43    1
    44    20    21   ar
    45    21    22   ar
