@<TRIPOS>MOLECULE
*****
 43 45 0 0 0
SMALL
GASTEIGER

@<TRIPOS>ATOM
      1 P          22.9371   71.5365   -2.6091 P.3     1  UNL1        0.2189
      2 O          22.9912   73.0875   -2.1503 O.co2   1  UNL1       -0.4371
      3 O          24.2319   70.9840   -3.1287 O.2     1  UNL1       -0.5170
      4 O          21.6865   71.4779   -3.6340 O.3     1  UNL1       -0.3112
      5 C          20.8274   70.3534   -3.5887 C.3     1  UNL1        0.1811
      6 O          18.9339   71.5130   -4.5094 O.3     1  UNL1       -0.3308
      7 O          17.3172   70.2035   -2.3500 O.3     1  UNL1       -0.3794
      8 O          16.7506   68.6692   -4.5320 O.3     1  UNL1       -0.3779
      9 C          18.4234   69.6866   -3.0901 C.3     1  UNL1        0.1713
     10 C          17.9941   69.3381   -4.4995 C.3     1  UNL1        0.1895
     11 C          19.4033   70.8273   -3.3284 C.3     1  UNL1        0.1764
     12 C          17.9401   70.7052   -5.1599 C.3     1  UNL1        0.2383
     13 H          16.6773   69.4927   -2.1856 H       1  UNL1        0.2105
     14 H          16.8373   67.8045   -4.0999 H       1  UNL1        0.2106
     15 O          16.0210   70.1906   -7.1671 O.2     1  UNL1       -0.2464
     16 O          19.1718   70.5062  -10.5163 O.2     1  UNL1       -0.2670
     17 N          18.2316   70.6472   -6.5644 N.ar    1  UNL1       -0.2551
     18 N          17.5923   70.3473   -8.8332 N.ar    1  UNL1       -0.2743
     19 C          17.1949   70.3817   -7.4901 C.ar    1  UNL1        0.3323
     20 C          19.5308   70.8537   -7.0122 C.ar    1  UNL1        0.0869
     21 C          19.8942   70.8179   -8.2957 C.ar    1  UNL1        0.0795
     22 C          18.8715   70.5456   -9.3269 C.ar    1  UNL1        0.2626
     23 H          16.8883   70.1621   -9.4961 H       1  UNL1        0.1734
     24 O          22.3653   70.7891   -1.2948 O.3     1  UNL1       -0.2703
     25 P          21.7479   71.3794    0.0778 P.3     1  UNL1        0.2208
     26 O          21.2582   70.0520    0.8641 O.co2   1  UNL1       -0.4371
     27 O          20.6752   72.4104   -0.1228 O.2     1  UNL1       -0.5170
     28 O          23.0274   71.8982    0.9122 O.3     1  UNL1       -0.2858
     29 O          24.6982   71.2933    2.4780 O.3     1  UNL1       -0.3226
     30 O          22.6621   74.2507    4.5215 O.3     1  UNL1       -0.3794
     31 O          21.2033   72.2402    2.9839 O.3     1  UNL1       -0.3775
     32 O          25.2552   74.8170    3.3358 O.3     1  UNL1       -0.3792
     33 C          23.1852   73.5845    3.3724 C.3     1  UNL1        0.1718
     34 C          22.5931   72.1778    3.2827 C.3     1  UNL1        0.1968
     35 C          24.7069   73.5131    3.5191 C.3     1  UNL1        0.1723
     36 C          23.2981   71.3553    2.2032 C.3     1  UNL1        0.2706
     37 C          25.3228   72.5751    2.4851 C.3     1  UNL1        0.1830
     38 H          21.6961   74.3078    4.4505 H       1  UNL1        0.2105
     39 H          20.7497   72.7609    3.6647 H       1  UNL1        0.2106
     40 H          24.8712   75.4239    3.9877 H       1  UNL1        0.2106
     41 O          27.0687   71.0105    2.4119 O.co2   1  UNL1       -0.5466
     42 O          27.5039   73.0082    3.4213 O.co2   1  UNL1       -0.5466
     43 C          26.7396   72.2559    2.8358 C.2     1  UNL1        0.0799
@<TRIPOS>UNITY_ATOM_ATTR
2 1
charge -1
26 1
charge -1
41 1
charge -1
@<TRIPOS>BOND
     1     1     4    1
     2     1    24    1
     3     1     2    1
     4     1     3    2
     5    25    28    1
     6    25    24    1
     7    25    26    1
     8    25    27    2
     9     6    11    1
    10     6    12    1
    11    29    36    1
    12    29    37    1
    13     7     9    1
    14     7    13    1
    15     8    10    1
    16     8    14    1
    17     4     5    1
    18    28    36    1
    19    30    33    1
    20    30    38    1
    21    31    34    1
    22    31    39    1
    23    32    35    1
    24    32    40    1
    25    41    43   ar
    26    15    19    2
    27    42    43   ar
    28    16    22    2
    29    17    12    1
    30    17    19   ar
    31    17    20   ar
    32    18    19   ar
    33    18    22   ar
    34    18    23    1
    35     9    10    1
    36     9    11    1
    37    10    12    1
    38    11     5    1
    39    33    34    1
    40    33    35    1
    41    34    36    1
    42    35    37    1
    43    37    43    1
    44    20    21   ar
    45    21    22   ar
@<TRIPOS>MOLECULE
*****
 43 45 0 0 0
SMALL
GASTEIGER

@<TRIPOS>ATOM
      1 P          22.0594   73.1303   -4.6897 P.3     1  UNL1        0.2189
      2 O          22.1001   74.7478   -4.7186 O.co2   1  UNL1       -0.4371
      3 O          22.9719   72.4560   -5.6718 O.2     1  UNL1       -0.5170
      4 O          20.4869   72.7786   -4.8357 O.3     1  UNL1       -0.3112
      5 C          19.9248   71.8182   -3.9603 C.3     1  UNL1        0.1811
      6 O          18.0051   72.2558   -5.3391 O.3     1  UNL1       -0.3308
      7 O          16.3798   71.0112   -3.1481 O.3     1  UNL1       -0.3794
      8 O          16.5558   68.9965   -4.9773 O.3     1  UNL1       -0.3779
      9 C          17.6839   70.6644   -3.6143 C.3     1  UNL1        0.1713
     10 C          17.5921   69.9556   -4.9490 C.3     1  UNL1        0.1895
     11 C          18.4076   71.9514   -3.9861 C.3     1  UNL1        0.1764
     12 C          17.3454   71.1114   -5.9035 C.3     1  UNL1        0.2383
     13 H          15.8981   70.2048   -2.9044 H       1  UNL1        0.2105
     14 H          16.7598   68.2817   -4.3533 H       1  UNL1        0.2106
     15 O          15.7775   70.5372   -8.1814 O.2     1  UNL1       -0.2464
     16 O          19.4985   70.1786  -10.8776 O.2     1  UNL1       -0.2670
     17 N          17.8786   70.8639   -7.2132 N.ar    1  UNL1       -0.2551
     18 N          17.6324   70.3582   -9.5219 N.ar    1  UNL1       -0.2743
     19 C          17.0043   70.5846   -8.2901 C.ar    1  UNL1        0.3323
     20 C          19.2520   70.9007   -7.4213 C.ar    1  UNL1        0.0869
     21 C          19.8360   70.6829   -8.6012 C.ar    1  UNL1        0.0795
     22 C          18.9938   70.3834   -9.7778 C.ar    1  UNL1        0.2626
     23 H          17.0443   70.1597  -10.2861 H       1  UNL1        0.1734
     24 O          22.3663   72.7871   -3.1402 O.3     1  UNL1       -0.2703
     25 P          22.8825   71.4263   -2.4366 P.3     1  UNL1        0.2208
     26 O          24.3629   71.2261   -3.0600 O.co2   1  UNL1       -0.4371
     27 O          21.9681   70.2505   -2.6248 O.2     1  UNL1       -0.5170
     28 O          23.1407   71.8339   -0.8972 O.3     1  UNL1       -0.2858
     29 O          24.4212   70.9762    0.9010 O.3     1  UNL1       -0.3226
     30 O          20.8740   71.9473    2.7830 O.3     1  UNL1       -0.3794
     31 O          20.8549   70.6560    0.1626 O.3     1  UNL1       -0.3775
     32 O          23.2125   73.6425    3.1128 O.3     1  UNL1       -0.3792
     33 C          21.9149   72.0812    1.8153 C.3     1  UNL1        0.1718
     34 C          22.0080   70.8017    0.9835 C.3     1  UNL1        0.1968
     35 C          23.2273   72.3264    2.5632 C.3     1  UNL1        0.1723
     36 C          23.2530   70.8158    0.0955 C.3     1  UNL1        0.2706
     37 C          24.4306   72.1996    1.6334 C.3     1  UNL1        0.1830
     38 H          20.0300   71.7907    2.3308 H       1  UNL1        0.2105
     39 H          20.0611   70.6465    0.7196 H       1  UNL1        0.2106
     40 H          22.4512   73.7365    3.7065 H       1  UNL1        0.2106
     41 O          26.2356   70.8698    2.3225 O.co2   1  UNL1       -0.5466
     42 O          26.1945   73.0285    3.0555 O.co2   1  UNL1       -0.5466
     43 C          25.6996   72.1119    2.4170 C.2     1  UNL1        0.0799
@<TRIPOS>UNITY_ATOM_ATTR
2 1
charge -1
26 1
charge -1
41 1
charge -1
@<TRIPOS>BOND
     1     1     4    1
     2     1    24    1
     3     1     2    1
     4     1     3    2
     5    25    28    1
     6    25    24    1
     7    25    26    1
     8    25    27    2
     9     6    11    1
    10     6    12    1
    11    29    36    1
    12    29    37    1
    13     7     9    1
    14     7    13    1
    15     8    10    1
    16     8    14    1
    17     4     5    1
    18    28    36    1
    19    30    33    1
    20    30    38    1
    21    31    34    1
    22    31    39    1
    23    32    35    1
    24    32    40    1
    25    41    43   ar
    26    15    19    2
    27    42    43   ar
    28    16    22    2
    29    17    12    1
    30    17    19   ar
    31    17    20   ar
    32    18    19   ar
    33    18    22   ar
    34    18    23    1
    35     9    10    1
    36     9    11    1
    37    10    12    1
    38    11     5    1
    39    33    34    1
    40    33    35    1
    41    34    36    1
    42    35    37    1
    43    37    43    1
    44    20    21   ar
    45    21    22   ar
@<TRIPOS>MOLECULE
*****
 43 45 0 0 0
SMALL
GASTEIGER

@<TRIPOS>ATOM
      1 P          23.3726   71.9814   -3.3586 P.3     1  UNL1        0.2189
      2 O          24.1841   72.9597   -4.3602 O.co2   1  UNL1       -0.4371
      3 O          24.0306   70.6590   -3.0937 O.2     1  UNL1       -0.5170
      4 O          21.8891   71.9118   -4.0007 O.3     1  UNL1       -0.3112
      5 C          21.1221   70.7380   -3.8051 C.3     1  UNL1        0.1811
      6 O          19.1134   71.7314   -4.6747 O.3     1  UNL1       -0.3308
      7 O          17.6943   70.4209   -2.3811 O.3     1  UNL1       -0.3794
      8 O          17.1241   68.7560   -4.4642 O.3     1  UNL1       -0.3779
      9 C          18.7946   69.9426   -3.1550 C.3     1  UNL1        0.1713
     10 C          18.3208   69.5036   -4.5244 C.3     1  UNL1        0.1895
     11 C          19.6842   71.1314   -3.4917 C.3     1  UNL1        0.1764
     12 C          18.1444   70.8331   -5.2382 C.3     1  UNL1        0.2383
     13 H          17.1115   69.6790   -2.1539 H       1  UNL1        0.2105
     14 H          17.2887   67.9191   -4.0010 H       1  UNL1        0.2106
     15 O          16.1590   70.1406   -7.1237 O.2     1  UNL1       -0.2464
     16 O          19.1234   70.4679  -10.6378 O.2     1  UNL1       -0.2670
     17 N          18.3700   70.7300   -6.6521 N.ar    1  UNL1       -0.2551
     18 N          17.6376   70.3033   -8.8720 N.ar    1  UNL1       -0.2743
     19 C          17.3046   70.3751   -7.5129 C.ar    1  UNL1        0.3323
     20 C          19.6338   70.9806   -7.1729 C.ar    1  UNL1        0.0869
     21 C          19.9358   70.9082   -8.4707 C.ar    1  UNL1        0.0795
     22 C          18.8796   70.5429   -9.4373 C.ar    1  UNL1        0.2626
     23 H          16.9126   70.0560   -9.4906 H       1  UNL1        0.1734
     24 O          23.1582   72.9016   -2.0471 O.3     1  UNL1       -0.2703
     25 P          22.6995   72.5183   -0.5450 P.3     1  UNL1        0.2208
     26 O          23.9132   71.5883   -0.0136 O.co2   1  UNL1       -0.4371
     27 O          21.3452   71.8760   -0.4597 O.2     1  UNL1       -0.5170
     28 O          22.8431   73.8913    0.2897 O.3     1  UNL1       -0.2858
     29 O          24.8616   74.9692   -0.3211 O.3     1  UNL1       -0.3226
     30 O          23.4002   77.5090    2.5912 O.3     1  UNL1       -0.3794
     31 O          23.2559   74.6126    2.9440 O.3     1  UNL1       -0.3775
     32 O          23.2144   78.2461   -0.2147 O.3     1  UNL1       -0.3792
     33 C          23.3160   76.5733    1.5163 C.3     1  UNL1        0.1718
     34 C          23.9981   75.2663    1.9210 C.3     1  UNL1        0.1968
     35 C          24.0162   77.1850    0.3009 C.3     1  UNL1        0.1723
     36 C          24.1311   74.3248    0.7232 C.3     1  UNL1        0.2706
     37 C          24.2238   76.1505   -0.8015 C.3     1  UNL1        0.1830
     38 H          22.9617   77.1418    3.3749 H       1  UNL1        0.2105
     39 H          23.1674   75.2044    3.7071 H       1  UNL1        0.2106
     40 H          23.0746   78.9113    0.4772 H       1  UNL1        0.2106
     41 O          25.4737   75.6856   -2.7311 O.co2   1  UNL1       -0.5466
     42 O          25.6461   77.7862   -1.8612 O.co2   1  UNL1       -0.5466
     43 C          25.1836   76.6557   -1.8291 C.2     1  UNL1        0.0799
@<TRIPOS>UNITY_ATOM_ATTR
2 1
charge -1
26 1
charge -1
41 1
charge -1
@<TRIPOS>BOND
     1     1     4    1
     2     1    24    1
     3     1     2    1
     4     1     3    2
     5    25    28    1
     6    25    24    1
     7    25    26    1
     8    25    27    2
     9     6    11    1
    10     6    12    1
    11    29    36    1
    12    29    37    1
    13     7     9    1
    14     7    13    1
    15     8    10    1
    16     8    14    1
    17     4     5    1
    18    28    36    1
    19    30    33    1
    20    30    38    1
    21    31    34    1
    22    31    39    1
    23    32    35    1
    24    32    40    1
    25    41    43   ar
    26    15    19    2
    27    42    43   ar
    28    16    22    2
    29    17    12    1
    30    17    19   ar
    31    17    20   ar
    32    18    19   ar
    33    18    22   ar
    34    18    23    1
    35     9    10    1
    36     9    11    1
    37    10    12    1
    38    11     5    1
    39    33    34    1
    40    33    35    1
    41    34    36    1
    42    35    37    1
    43    37    43    1
    44    20    21   ar
    45    21    22   ar
@<TRIPOS>MOLECULE
*****
 43 45 0 0 0
SMALL
GASTEIGER

@<TRIPOS>ATOM
      1 P          21.6948   73.3972   -5.3776 P.3     1  UNL1        0.2189
      2 O          21.6536   74.9178   -5.9299 O.co2   1  UNL1       -0.4371
      3 O          22.4225   72.4232   -6.2571 O.2     1  UNL1       -0.5170
      4 O          20.1430   73.0503   -5.0786 O.3     1  UNL1       -0.3112
      5 C          19.8319   72.2720   -3.9375 C.3     1  UNL1        0.1811
      6 O          17.7688   72.2766   -5.1709 O.3     1  UNL1       -0.3308
      7 O          16.5838   70.8199   -2.8332 O.3     1  UNL1       -0.3794
      8 O          17.0203   68.8128   -4.6268 O.3     1  UNL1       -0.3779
      9 C          17.8935   70.7171   -3.3925 C.3     1  UNL1        0.1713
     10 C          17.8466   69.9558   -4.7004 C.3     1  UNL1        0.1895
     11 C          18.3204   72.1060   -3.8473 C.3     1  UNL1        0.1764
     12 C          17.3084   71.0059   -5.6573 C.3     1  UNL1        0.2383
     13 H          16.2895   69.9445   -2.5353 H       1  UNL1        0.2105
     14 H          17.4059   68.1746   -4.0055 H       1  UNL1        0.2106
     15 O          15.7080   70.1127   -7.8061 O.2     1  UNL1       -0.2464
     16 O          19.2374   70.3269  -10.7627 O.2     1  UNL1       -0.2670
     17 N          17.7835   70.8194   -6.9990 N.ar    1  UNL1       -0.2551
     18 N          17.4676   70.2193   -9.2764 N.ar    1  UNL1       -0.2743
     19 C          16.8975   70.3666   -8.0051 C.ar    1  UNL1        0.3323
     20 C          19.1120   71.0855   -7.3077 C.ar    1  UNL1        0.0869
     21 C          19.6409   70.9404   -8.5242 C.ar    1  UNL1        0.0795
     22 C          18.7829   70.4706   -9.6317 C.ar    1  UNL1        0.2626
     23 H          16.8707   69.9032   -9.9928 H       1  UNL1        0.1734
     24 O          22.3213   73.5657   -3.8971 O.3     1  UNL1       -0.2703
     25 P          23.6663   72.9572   -3.2381 P.3     1  UNL1        0.2208
     26 O          24.8467   73.6348   -4.1143 O.co2   1  UNL1       -0.4371
     27 O          23.7085   71.4570   -3.1990 O.2     1  UNL1       -0.5170
     28 O          23.7721   73.6678   -1.7937 O.3     1  UNL1       -0.2858
     29 O          21.8399   72.8074   -0.7283 O.3     1  UNL1       -0.3226
     30 O          23.8255   74.5769    2.4331 O.3     1  UNL1       -0.3794
     31 O          23.6778   75.9161   -0.1590 O.3     1  UNL1       -0.3775
     32 O          23.8438   71.6854    2.1332 O.3     1  UNL1       -0.3792
     33 C          23.7102   73.8958    1.1838 C.3     1  UNL1        0.1718
     34 C          22.9254   74.7627    0.1988 C.3     1  UNL1        0.1968
     35 C          22.9777   72.5750    1.4311 C.3     1  UNL1        0.1723
     36 C          22.5836   73.9781   -1.0686 C.3     1  UNL1        0.2706
     37 C          22.5601   71.9156    0.1198 C.3     1  UNL1        0.1830
     38 H          24.2879   75.4195    2.3007 H       1  UNL1        0.2105
     39 H          23.8985   76.4186    0.6405 H       1  UNL1        0.2106
     40 H          24.1171   72.0933    2.9697 H       1  UNL1        0.2106
     41 O          22.1210   69.8531    1.1468 O.co2   1  UNL1       -0.5466
     42 O          20.4337   70.7909   -0.0667 O.co2   1  UNL1       -0.5466
     43 C          21.5755   70.8195    0.3674 C.2     1  UNL1        0.0799
@<TRIPOS>UNITY_ATOM_ATTR
2 1
charge -1
26 1
charge -1
41 1
charge -1
@<TRIPOS>BOND
     1     1     4    1
     2     1    24    1
     3     1     2    1
     4     1     3    2
     5    25    28    1
     6    25    24    1
     7    25    26    1
     8    25    27    2
     9     6    11    1
    10     6    12    1
    11    29    36    1
    12    29    37    1
    13     7     9    1
    14     7    13    1
    15     8    10    1
    16     8    14    1
    17     4     5    1
    18    28    36    1
    19    30    33    1
    20    30    38    1
    21    31    34    1
    22    31    39    1
    23    32    35    1
    24    32    40    1
    25    41    43   ar
    26    15    19    2
    27    42    43   ar
    28    16    22    2
    29    17    12    1
    30    17    19   ar
    31    17    20   ar
    32    18    19   ar
    33    18    22   ar
    34    18    23    1
    35     9    10    1
    36     9    11    1
    37    10    12    1
    38    11     5    1
    39    33    34    1
    40    33    35    1
    41    34    36    1
    42    35    37    1
    43    37    43    1
    44    20    21   ar
    45    21    22   ar
@<TRIPOS>MOLECULE
*****
 43 45 0 0 0
SMALL
GASTEIGER

@<TRIPOS>ATOM
      1 P          23.2707   72.0735   -2.9360 P.3     1  UNL1        0.2189
      2 O          23.9344   73.4353   -3.5051 O.co2   1  UNL1       -0.4371
      3 O          24.1357   70.8523   -3.0478 O.2     1  UNL1       -0.5170
      4 O          21.8413   71.9934   -3.6897 O.3     1  UNL1       -0.3112
      5 C          21.1124   70.7811   -3.6301 C.3     1  UNL1        0.1811
      6 O          19.0483   71.6659   -4.4869 O.3     1  UNL1       -0.3308
      7 O          17.7133   70.2682   -2.1943 O.3     1  UNL1       -0.3794
      8 O          17.2275   68.5841   -4.2833 O.3     1  UNL1       -0.3779
      9 C          18.8352   69.8551   -2.9748 C.3     1  UNL1        0.1713
     10 C          18.3807   69.3970   -4.3445 C.3     1  UNL1        0.1895
     11 C          19.6564   71.0929   -3.3091 C.3     1  UNL1        0.1764
     12 C          18.1282   70.7180   -5.0510 C.3     1  UNL1        0.2383
     13 H          17.1735   69.4941   -1.9685 H       1  UNL1        0.2105
     14 H          17.4400   67.7554   -3.8248 H       1  UNL1        0.2106
     15 O          16.2189   69.7980   -6.9178 O.2     1  UNL1       -0.2464
     16 O          19.1013   70.4393  -10.4569 O.2     1  UNL1       -0.2670
     17 N          18.3533   70.6342   -6.4664 N.ar    1  UNL1       -0.2551
     18 N          17.6567   70.1173   -8.6786 N.ar    1  UNL1       -0.2743
     19 C          17.3280   70.1578   -7.3172 C.ar    1  UNL1        0.3323
     20 C          19.5769   71.0226   -6.9982 C.ar    1  UNL1        0.0869
     21 C          19.8754   70.9785   -8.2981 C.ar    1  UNL1        0.0795
     22 C          18.8596   70.4922   -9.2547 C.ar    1  UNL1        0.2626
     23 H          16.9595   69.7873   -9.2903 H       1  UNL1        0.1734
     24 O          22.8623   72.4732   -1.4239 O.3     1  UNL1       -0.2703
     25 P          22.6505   71.5618   -0.1055 P.3     1  UNL1        0.2208
     26 O          24.1302   70.9686    0.1757 O.co2   1  UNL1       -0.4371
     27 O          21.5815   70.5169   -0.2445 O.2     1  UNL1       -0.5170
     28 O          22.4022   72.6191    1.0873 O.3     1  UNL1       -0.2858
     29 O          23.4953   74.5210    1.9801 O.3     1  UNL1       -0.3226
     30 O          22.4631   72.4584    5.4077 O.3     1  UNL1       -0.3794
     31 O          23.5168   71.0357    3.0839 O.3     1  UNL1       -0.3775
     32 O          20.9591   74.8165    4.6151 O.3     1  UNL1       -0.3792
     33 C          22.3134   72.9029    4.0594 C.3     1  UNL1        0.1718
     34 C          23.5187   72.4506    3.2346 C.3     1  UNL1        0.1968
     35 C          22.2205   74.4303    4.0725 C.3     1  UNL1        0.1723
     36 C          23.5083   73.0990    1.8496 C.3     1  UNL1        0.2706
     37 C          22.3437   75.0081    2.6655 C.3     1  UNL1        0.1830
     38 H          22.5244   71.4903    5.4243 H       1  UNL1        0.2105
     39 H          23.5231   70.6178    3.9590 H       1  UNL1        0.2106
     40 H          20.8680   74.4550    5.5105 H       1  UNL1        0.2106
     41 O          22.8261   76.9706    1.4751 O.co2   1  UNL1       -0.5466
     42 O          22.5593   77.1618    3.7315 O.co2   1  UNL1       -0.5466
     43 C          22.5820   76.4821    2.7163 C.2     1  UNL1        0.0799
@<TRIPOS>UNITY_ATOM_ATTR
2 1
charge -1
26 1
charge -1
41 1
charge -1
@<TRIPOS>BOND
     1     1     4    1
     2     1    24    1
     3     1     2    1
     4     1     3    2
     5    25    28    1
     6    25    24    1
     7    25    26    1
     8    25    27    2
     9     6    11    1
    10     6    12    1
    11    29    36    1
    12    29    37    1
    13     7     9    1
    14     7    13    1
    15     8    10    1
    16     8    14    1
    17     4     5    1
    18    28    36    1
    19    30    33    1
    20    30    38    1
    21    31    34    1
    22    31    39    1
    23    32    35    1
    24    32    40    1
    25    41    43   ar
    26    15    19    2
    27    42    43   ar
    28    16    22    2
    29    17    12    1
    30    17    19   ar
    31    17    20   ar
    32    18    19   ar
    33    18    22   ar
    34    18    23    1
    35     9    10    1
    36     9    11    1
    37    10    12    1
    38    11     5    1
    39    33    34    1
    40    33    35    1
    41    34    36    1
    42    35    37    1
    43    37    43    1
    44    20    21   ar
    45    21    22   ar
@<TRIPOS>MOLECULE
*****
 43 45 0 0 0
SMALL
GASTEIGER

@<TRIPOS>ATOM
      1 P          23.3872   72.3034   -3.3625 P.3     1  UNL1        0.2189
      2 O          23.7377   70.9848   -2.4923 O.co2   1  UNL1       -0.4371
      3 O          24.5497   72.9067   -4.0948 O.2     1  UNL1       -0.5170
      4 O          22.6388   73.2768   -2.3088 O.3     1  UNL1       -0.3112
      5 C          23.2307   73.4810   -1.0389 C.3     1  UNL1        0.1811
      6 O          23.1659   71.8911    0.7626 O.3     1  UNL1       -0.3308
      7 O          20.6482   73.2649    1.6373 O.3     1  UNL1       -0.3794
      8 O          22.5123   74.2976    3.3387 O.3     1  UNL1       -0.3779
      9 C          21.8263   73.8227    1.0548 C.3     1  UNL1        0.1713
     10 C          22.9486   73.8547    2.0706 C.3     1  UNL1        0.1895
     11 C          22.3557   72.8327    0.0262 C.3     1  UNL1        0.1764
     12 C          23.4047   72.4056    2.0823 C.3     1  UNL1        0.2383
     13 H          20.2915   73.8797    2.2980 H       1  UNL1        0.2105
     14 H          22.2328   75.2251    3.2786 H       1  UNL1        0.2106
     15 O          24.8140   69.9581    2.0749 O.2     1  UNL1       -0.2464
     16 O          28.7590   72.0160    3.2772 O.2     1  UNL1       -0.2670
     17 N          24.8008   72.2731    2.3896 N.ar    1  UNL1       -0.2551
     18 N          26.7772   70.9852    2.6747 N.ar    1  UNL1       -0.2743
     19 C          25.4126   70.9977    2.3573 C.ar    1  UNL1        0.3323
     20 C          25.5488   73.3976    2.7164 C.ar    1  UNL1        0.0869
     21 C          26.8488   73.3700    3.0165 C.ar    1  UNL1        0.0795
     22 C          27.5634   72.0767    3.0066 C.ar    1  UNL1        0.2626
     23 H          27.2246   70.1083    2.6609 H       1  UNL1        0.1734
     24 O          22.1803   71.8006   -4.3131 O.3     1  UNL1       -0.2703
     25 P          20.7826   71.0703   -3.9571 P.3     1  UNL1        0.2208
     26 O          20.4213   71.6569   -2.4923 O.co2   1  UNL1       -0.4371
     27 O          20.8355   69.5715   -4.0273 O.2     1  UNL1       -0.5170
     28 O          19.7030   71.7490   -4.9452 O.3     1  UNL1       -0.2858
     29 O          18.3218   69.9710   -5.6803 O.3     1  UNL1       -0.3226
     30 O          16.4980   73.2346   -7.4384 O.3     1  UNL1       -0.3794
     31 O          19.4100   73.0021   -7.4109 O.3     1  UNL1       -0.3775
     32 O          15.3124   71.9870   -5.0956 O.3     1  UNL1       -0.3792
     33 C          17.2376   72.5388   -6.4350 C.3     1  UNL1        0.1718
     34 C          18.5124   71.9592   -7.0486 C.3     1  UNL1        0.1968
     35 C          16.3525   71.4168   -5.8878 C.3     1  UNL1        0.1723
     36 C          19.2127   71.0178   -6.0676 C.3     1  UNL1        0.2706
     37 C          17.1521   70.4494   -5.0199 C.3     1  UNL1        0.1830
     38 H          17.0407   73.9525   -7.8009 H       1  UNL1        0.2105
     39 H          18.9721   73.6034   -8.0331 H       1  UNL1        0.2106
     40 H          14.7959   72.6049   -5.6363 H       1  UNL1        0.2106
     41 O          15.8291   69.2187   -3.5244 O.co2   1  UNL1       -0.5466
     42 O          16.2433   68.2809   -5.5611 O.co2   1  UNL1       -0.5466
     43 C          16.3753   69.1988   -4.7654 C.2     1  UNL1        0.0799
@<TRIPOS>UNITY_ATOM_ATTR
2 1
charge -1
26 1
charge -1
41 1
charge -1
@<TRIPOS>BOND
     1     1     4    1
     2     1    24    1
     3     1     2    1
     4     1     3    2
     5    25    28    1
     6    25    24    1
     7    25    26    1
     8    25    27    2
     9     6    11    1
    10     6    12    1
    11    29    36    1
    12    29    37    1
    13     7     9    1
    14     7    13    1
    15     8    10    1
    16     8    14    1
    17     4     5    1
    18    28    36    1
    19    30    33    1
    20    30    38    1
    21    31    34    1
    22    31    39    1
    23    32    35    1
    24    32    40    1
    25    41    43   ar
    26    15    19    2
    27    42    43   ar
    28    16    22    2
    29    17    12    1
    30    17    19   ar
    31    17    20   ar
    32    18    19   ar
    33    18    22   ar
    34    18    23    1
    35     9    10    1
    36     9    11    1
    37    10    12    1
    38    11     5    1
    39    33    34    1
    40    33    35    1
    41    34    36    1
    42    35    37    1
    43    37    43    1
    44    20    21   ar
    45    21    22   ar
@<TRIPOS>MOLECULE
*****
 43 45 0 0 0
SMALL
GASTEIGER

@<TRIPOS>ATOM
      1 P          21.8908   72.0759   -1.8068 P.3     1  UNL1        0.2189
      2 O          20.5776   72.5686   -0.9996 O.co2   1  UNL1       -0.4371
      3 O          22.5647   73.1360   -2.6277 O.2     1  UNL1       -0.5170
      4 O          21.3805   70.7747   -2.6218 O.3     1  UNL1       -0.3112
      5 C          20.7562   70.9657   -3.8781 C.3     1  UNL1        0.1811
      6 O          18.7407   71.7953   -4.8917 O.3     1  UNL1       -0.3308
      7 O          17.2813   70.4819   -2.6253 O.3     1  UNL1       -0.3794
      8 O          16.9315   68.7082   -4.6668 O.3     1  UNL1       -0.3779
      9 C          18.4503   70.0469   -3.3202 C.3     1  UNL1        0.1713
     10 C          18.0809   69.5284   -4.6939 C.3     1  UNL1        0.1895
     11 C          19.2816   71.2773   -3.6570 C.3     1  UNL1        0.1764
     12 C          17.8620   70.8165   -5.4689 C.3     1  UNL1        0.2383
     13 H          16.7341   69.7129   -2.3995 H       1  UNL1        0.2105
     14 H          17.1220   67.9013   -4.1623 H       1  UNL1        0.2106
     15 O          15.9418   70.3699   -7.4912 O.2     1  UNL1       -0.2464
     16 O          19.1630   70.2937  -10.7870 O.2     1  UNL1       -0.2670
     17 N          18.1714   70.6762   -6.8637 N.ar    1  UNL1       -0.2551
     18 N          17.5481   70.3314   -9.1306 N.ar    1  UNL1       -0.2743
     19 C          17.1324   70.4540   -7.7982 C.ar    1  UNL1        0.3323
     20 C          19.4901   70.7604   -7.2936 C.ar    1  UNL1        0.0869
     21 C          19.8708   70.6415   -8.5670 C.ar    1  UNL1        0.0795
     22 C          18.8471   70.4071   -9.6065 C.ar    1  UNL1        0.2626
     23 H          16.8427   70.1742   -9.7993 H       1  UNL1        0.1734
     24 O          22.8135   71.4372   -0.6434 O.3     1  UNL1       -0.2703
     25 P          22.4907   71.1068    0.9059 P.3     1  UNL1        0.2208
     26 O          23.9451   70.7455    1.5179 O.co2   1  UNL1       -0.4371
     27 O          21.4536   70.0396    1.1049 O.2     1  UNL1       -0.5170
     28 O          22.1170   72.5336    1.5594 O.3     1  UNL1       -0.2858
     29 O          21.9653   72.7155    3.9159 O.3     1  UNL1       -0.3226
     30 O          20.0295   76.1501    2.6812 O.3     1  UNL1       -0.3794
     31 O          19.5664   73.6139    1.3072 O.3     1  UNL1       -0.3775
     32 O          22.7293   76.3003    3.7487 O.3     1  UNL1       -0.3792
     33 C          20.9867   75.0939    2.6028 C.3     1  UNL1        0.1718
     34 C          20.2614   73.7494    2.5415 C.3     1  UNL1        0.1968
     35 C          21.8721   75.1647    3.8490 C.3     1  UNL1        0.1723
     36 C          21.2467   72.5890    2.6883 C.3     1  UNL1        0.2706
     37 C          22.7344   73.9138    3.9915 C.3     1  UNL1        0.1830
     38 H          19.4554   76.1251    1.8995 H       1  UNL1        0.2105
     39 H          18.9397   74.3471    1.2074 H       1  UNL1        0.2106
     40 H          22.1928   77.1032    3.6574 H       1  UNL1        0.2106
     41 O          22.6719   72.9445    6.1265 O.co2   1  UNL1       -0.5466
     42 O          24.3029   74.4883    5.7325 O.co2   1  UNL1       -0.5466
     43 C          23.3390   73.8388    5.3557 C.2     1  UNL1        0.0799
@<TRIPOS>UNITY_ATOM_ATTR
2 1
charge -1
26 1
charge -1
41 1
charge -1
@<TRIPOS>BOND
     1     1     4    1
     2     1    24    1
     3     1     2    1
     4     1     3    2
     5    25    28    1
     6    25    24    1
     7    25    26    1
     8    25    27    2
     9     6    11    1
    10     6    12    1
    11    29    36    1
    12    29    37    1
    13     7     9    1
    14     7    13    1
    15     8    10    1
    16     8    14    1
    17     4     5    1
    18    28    36    1
    19    30    33    1
    20    30    38    1
    21    31    34    1
    22    31    39    1
    23    32    35    1
    24    32    40    1
    25    41    43   ar
    26    15    19    2
    27    42    43   ar
    28    16    22    2
    29    17    12    1
    30    17    19   ar
    31    17    20   ar
    32    18    19   ar
    33    18    22   ar
    34    18    23    1
    35     9    10    1
    36     9    11    1
    37    10    12    1
    38    11     5    1
    39    33    34    1
    40    33    35    1
    41    34    36    1
    42    35    37    1
    43    37    43    1
    44    20    21   ar
    45    21    22   ar
@<TRIPOS>MOLECULE
*****
 43 45 0 0 0
SMALL
GASTEIGER

@<TRIPOS>ATOM
      1 P          22.8557   72.7806   -4.1485 P.3     1  UNL1        0.2189
      2 O          23.1905   73.8635   -5.3035 O.co2   1  UNL1       -0.4371
      3 O          23.9845   71.8546   -3.8018 O.2     1  UNL1       -0.5170
      4 O          21.4970   72.0696   -4.6646 O.3     1  UNL1       -0.3112
      5 C          20.9353   71.0342   -3.8791 C.3     1  UNL1        0.1811
      6 O          18.8929   71.8713   -4.8306 O.3     1  UNL1       -0.3308
      7 O          17.4993   70.5690   -2.5168 O.3     1  UNL1       -0.3794
      8 O          17.0775   68.7930   -4.5427 O.3     1  UNL1       -0.3779
      9 C          18.6439   70.1273   -3.2472 C.3     1  UNL1        0.1713
     10 C          18.2292   69.6078   -4.6075 C.3     1  UNL1        0.1895
     11 C          19.4699   71.3531   -3.6125 C.3     1  UNL1        0.1764
     12 C          17.9920   70.8955   -5.3779 C.3     1  UNL1        0.2383
     13 H          16.9560   69.8030   -2.2723 H       1  UNL1        0.2105
     14 H          17.2799   67.9862   -4.0427 H       1  UNL1        0.2106
     15 O          16.0750   70.0854   -7.2872 O.2     1  UNL1       -0.2464
     16 O          19.1193   70.3753  -10.7357 O.2     1  UNL1       -0.2670
     17 N          18.2567   70.7510   -6.7815 N.ar    1  UNL1       -0.2551
     18 N          17.5933   70.2296   -9.0028 N.ar    1  UNL1       -0.2743
     19 C          17.2236   70.3380   -7.6557 C.ar    1  UNL1        0.3323
     20 C          19.5263   71.0185   -7.2790 C.ar    1  UNL1        0.0869
     21 C          19.8635   70.9107   -8.5656 C.ar    1  UNL1        0.0795
     22 C          18.8427   70.4840   -9.5450 C.ar    1  UNL1        0.2626
     23 H          16.8914   69.9417   -9.6303 H       1  UNL1        0.1734
     24 O          22.3411   73.7027   -2.9247 O.3     1  UNL1       -0.2703
     25 P          23.1586   74.5715   -1.8336 P.3     1  UNL1        0.2208
     26 O          22.4160   76.0093   -1.8741 O.co2   1  UNL1       -0.4371
     27 O          24.6385   74.6327   -2.0788 O.2     1  UNL1       -0.5170
     28 O          22.7415   73.9377   -0.4100 O.3     1  UNL1       -0.2858
     29 O          23.8330   73.5552    1.6568 O.3     1  UNL1       -0.3226
     30 O          21.6691   70.0669    1.1907 O.3     1  UNL1       -0.3794
     31 O          23.0655   71.2582   -1.0821 O.3     1  UNL1       -0.3775
     32 O          20.7768   72.0974    3.0699 O.3     1  UNL1       -0.3792
     33 C          21.9361   71.4627    1.0554 C.3     1  UNL1        0.1718
     34 C          23.2338   71.6620    0.2719 C.3     1  UNL1        0.1968
     35 C          22.0653   72.0577    2.4594 C.3     1  UNL1        0.1723
     36 C          23.6728   73.1266    0.3040 C.3     1  UNL1        0.2706
     37 C          22.6274   73.4757    2.4140 C.3     1  UNL1        0.1830
     38 H          21.5831   69.6672    0.3108 H       1  UNL1        0.2105
     39 H          22.7866   70.3299   -1.1099 H       1  UNL1        0.2106
     40 H          20.4078   71.2011    3.1048 H       1  UNL1        0.2106
     41 O          21.9782   74.1337    4.5697 O.co2   1  UNL1       -0.5466
     42 O          24.2148   74.0710    4.1307 O.co2   1  UNL1       -0.5466
     43 C          23.0557   73.9203    3.7745 C.2     1  UNL1        0.0799
@<TRIPOS>UNITY_ATOM_ATTR
2 1
charge -1
26 1
charge -1
41 1
charge -1
@<TRIPOS>BOND
     1     1     4    1
     2     1    24    1
     3     1     2    1
     4     1     3    2
     5    25    28    1
     6    25    24    1
     7    25    26    1
     8    25    27    2
     9     6    11    1
    10     6    12    1
    11    29    36    1
    12    29    37    1
    13     7     9    1
    14     7    13    1
    15     8    10    1
    16     8    14    1
    17     4     5    1
    18    28    36    1
    19    30    33    1
    20    30    38    1
    21    31    34    1
    22    31    39    1
    23    32    35    1
    24    32    40    1
    25    41    43   ar
    26    15    19    2
    27    42    43   ar
    28    16    22    2
    29    17    12    1
    30    17    19   ar
    31    17    20   ar
    32    18    19   ar
    33    18    22   ar
    34    18    23    1
    35     9    10    1
    36     9    11    1
    37    10    12    1
    38    11     5    1
    39    33    34    1
    40    33    35    1
    41    34    36    1
    42    35    37    1
    43    37    43    1
    44    20    21   ar
    45    21    22   ar
@<TRIPOS>MOLECULE
*****
 43 45 0 0 0
SMALL
GASTEIGER

@<TRIPOS>ATOM
      1 P          23.3157   71.8970   -3.0581 P.3     1  UNL1        0.2189
      2 O          23.9805   73.2325   -3.6854 O.co2   1  UNL1       -0.4371
      3 O          24.1811   70.6724   -3.1137 O.2     1  UNL1       -0.5170
      4 O          21.8881   71.7833   -3.8111 O.3     1  UNL1       -0.3112
      5 C          21.1203   70.6075   -3.6306 C.3     1  UNL1        0.1811
      6 O          19.1100   71.6082   -4.4880 O.3     1  UNL1       -0.3308
      7 O          17.6948   70.2770   -2.2040 O.3     1  UNL1       -0.3794
      8 O          17.1217   68.6307   -4.3009 O.3     1  UNL1       -0.3779
      9 C          18.7940   69.8058   -2.9839 C.3     1  UNL1        0.1713
     10 C          18.3181   69.3791   -4.3563 C.3     1  UNL1        0.1895
     11 C          19.6829   70.9978   -3.3113 C.3     1  UNL1        0.1764
     12 C          18.1403   70.7148   -5.0579 C.3     1  UNL1        0.2383
     13 H          17.1126   69.5330   -1.9824 H       1  UNL1        0.2105
     14 H          17.2872   67.7897   -3.8455 H       1  UNL1        0.2106
     15 O          16.1865   69.9123   -6.9328 O.2     1  UNL1       -0.2464
     16 O          19.1089   70.4046  -10.4628 O.2     1  UNL1       -0.2670
     17 N          18.3637   70.6244   -6.4731 N.ar    1  UNL1       -0.2551
     18 N          17.6442   70.1573   -8.6890 N.ar    1  UNL1       -0.2743
     19 C          17.3151   70.2104   -7.3282 C.ar    1  UNL1        0.3323
     20 C          19.6085   70.9452   -7.0007 C.ar    1  UNL1        0.0869
     21 C          19.9071   70.8898   -8.3001 C.ar    1  UNL1        0.0795
     22 C          18.8678   70.4659   -9.2610 C.ar    1  UNL1        0.2626
     23 H          16.9308   69.8698   -9.3037 H       1  UNL1        0.1734
     24 O          22.9035   72.3632   -1.5663 O.3     1  UNL1       -0.2703
     25 P          22.1957   73.7159   -1.0344 P.3     1  UNL1        0.2208
     26 O          20.6195   73.4190   -1.2527 O.co2   1  UNL1       -0.4371
     27 O          22.6866   74.9698   -1.6985 O.2     1  UNL1       -0.5170
     28 O          22.3987   73.6822    0.5656 O.3     1  UNL1       -0.2858
     29 O          21.3398   75.2557    1.9841 O.3     1  UNL1       -0.3226
     30 O          24.4047   73.8834    4.3906 O.3     1  UNL1       -0.3794
     31 O          24.8801   74.4457    1.5636 O.3     1  UNL1       -0.3775
     32 O          21.6769   72.9894    4.8499 O.3     1  UNL1       -0.3792
     33 C          23.4047   73.7935    3.3757 C.3     1  UNL1        0.1718
     34 C          23.7018   74.8101    2.2731 C.3     1  UNL1        0.1968
     35 C          22.0486   74.0888    4.0206 C.3     1  UNL1        0.1723
     36 C          22.5362   74.9047    1.2877 C.3     1  UNL1        0.2706
     37 C          20.9638   74.2939    2.9672 C.3     1  UNL1        0.1830
     38 H          25.2754   73.6995    4.0041 H       1  UNL1        0.2105
     39 H          25.6238   74.3835    2.1828 H       1  UNL1        0.2106
     40 H          22.3593   72.8481    5.5246 H       1  UNL1        0.2106
     41 O          19.0854   73.9865    4.3379 O.co2   1  UNL1       -0.5466
     42 O          19.3745   76.0525    3.4176 O.co2   1  UNL1       -0.5466
     43 C          19.7403   74.8975    3.5764 C.2     1  UNL1        0.0799
@<TRIPOS>UNITY_ATOM_ATTR
2 1
charge -1
26 1
charge -1
41 1
charge -1
@<TRIPOS>BOND
     1     1     4    1
     2     1    24    1
     3     1     2    1
     4     1     3    2
     5    25    28    1
     6    25    24    1
     7    25    26    1
     8    25    27    2
     9     6    11    1
    10     6    12    1
    11    29    36    1
    12    29    37    1
    13     7     9    1
    14     7    13    1
    15     8    10    1
    16     8    14    1
    17     4     5    1
    18    28    36    1
    19    30    33    1
    20    30    38    1
    21    31    34    1
    22    31    39    1
    23    32    35    1
    24    32    40    1
    25    41    43   ar
    26    15    19    2
    27    42    43   ar
    28    16    22    2
    29    17    12    1
    30    17    19   ar
    31    17    20   ar
    32    18    19   ar
    33    18    22   ar
    34    18    23    1
    35     9    10    1
    36     9    11    1
    37    10    12    1
    38    11     5    1
    39    33    34    1
    40    33    35    1
    41    34    36    1
    42    35    37    1
    43    37    43    1
    44    20    21   ar
    45    21    22   ar
@<TRIPOS>MOLECULE
*****
 43 45 0 0 0
SMALL
GASTEIGER

@<TRIPOS>ATOM
      1 P          23.4384   72.0706   -3.2964 P.3     1  UNL1        0.2189
      2 O          24.1418   72.9705   -4.4428 O.co2   1  UNL1       -0.4371
      3 O          24.1784   70.8171   -2.9320 O.2     1  UNL1       -0.5170
      4 O          21.9280   71.8625   -3.8380 O.3     1  UNL1       -0.3112
      5 C          21.4757   72.6724   -4.9077 C.3     1  UNL1        0.1811
      6 O          20.6664   70.6213   -5.8645 O.3     1  UNL1       -0.3308
      7 O          21.0705   71.9246   -8.5346 O.3     1  UNL1       -0.3794
      8 O          18.3819   72.1717   -8.1517 O.3     1  UNL1       -0.3779
      9 C          20.6365   72.5027   -7.3034 C.3     1  UNL1        0.1713
     10 C          19.2079   72.0968   -7.0086 C.3     1  UNL1        0.1895
     11 C          21.3995   71.8267   -6.1723 C.3     1  UNL1        0.1764
     12 C          19.3818   70.6742   -6.5050 C.3     1  UNL1        0.2383
     13 H          20.5967   72.3407   -9.2723 H       1  UNL1        0.2105
     14 H          18.3024   73.0972   -8.4331 H       1  UNL1        0.2106
     15 O          16.7979   69.7694   -7.1991 O.2     1  UNL1       -0.2464
     16 O          15.5861   69.2723   -2.7800 O.2     1  UNL1       -0.2670
     17 N          18.3712   70.3016   -5.5559 N.ar    1  UNL1       -0.2551
     18 N          16.1965   69.5236   -4.9975 N.ar    1  UNL1       -0.2743
     19 C          17.1055   69.8603   -6.0091 C.ar    1  UNL1        0.3323
     20 C          18.6384   70.3733   -4.1941 C.ar    1  UNL1        0.0869
     21 C          17.7618   70.0490   -3.2417 C.ar    1  UNL1        0.0795
     22 C          16.4159   69.5792   -3.6306 C.ar    1  UNL1        0.2626
     23 H          15.3078   69.2156   -5.2885 H       1  UNL1        0.1734
     24 O          23.2471   73.1175   -2.0797 O.3     1  UNL1       -0.2703
     25 P          23.3442   72.9136   -0.4789 P.3     1  UNL1        0.2208
     26 O          21.8026   73.0244    0.0022 O.co2   1  UNL1       -0.4371
     27 O          24.2766   73.8689    0.2081 O.2     1  UNL1       -0.5170
     28 O          23.7199   71.3566   -0.2866 O.3     1  UNL1       -0.2858
     29 O          24.8258   71.5411    1.7995 O.3     1  UNL1       -0.3226
     30 O          20.8919   72.2069    2.8717 O.3     1  UNL1       -0.3794
     31 O          21.5701   70.1059    0.9585 O.3     1  UNL1       -0.3775
     32 O          22.7565   74.4313    2.7091 O.3     1  UNL1       -0.3792
     33 C          22.0325   72.2410    2.0138 C.3     1  UNL1        0.1718
     34 C          22.5168   70.8152    1.7494 C.3     1  UNL1        0.1968
     35 C          23.1253   73.0535    2.7120 C.3     1  UNL1        0.1723
     36 C          23.8648   70.8203    1.0272 C.3     1  UNL1        0.2706
     37 C          24.4682   72.9064    2.0023 C.3     1  UNL1        0.1830
     38 H          20.1841   71.6957    2.4487 H       1  UNL1        0.2105
     39 H          20.7123   70.0989    1.4107 H       1  UNL1        0.2106
     40 H          21.9033   74.5386    3.1578 H       1  UNL1        0.2106
     41 O          25.2069   74.5594    3.4933 O.co2   1  UNL1       -0.5466
     42 O          26.6753   72.8932    2.9769 O.co2   1  UNL1       -0.5466
     43 C          25.5796   73.4208    2.8581 C.2     1  UNL1        0.0799
@<TRIPOS>UNITY_ATOM_ATTR
2 1
charge -1
26 1
charge -1
41 1
charge -1
@<TRIPOS>BOND
     1     1     4    1
     2     1    24    1
     3     1     2    1
     4     1     3    2
     5    25    28    1
     6    25    24    1
     7    25    26    1
     8    25    27    2
     9     6    11    1
    10     6    12    1
    11    29    36    1
    12    29    37    1
    13     7     9    1
    14     7    13    1
    15     8    10    1
    16     8    14    1
    17     4     5    1
    18    28    36    1
    19    30    33    1
    20    30    38    1
    21    31    34    1
    22    31    39    1
    23    32    35    1
    24    32    40    1
    25    41    43   ar
    26    15    19    2
    27    42    43   ar
    28    16    22    2
    29    17    12    1
    30    17    19   ar
    31    17    20   ar
    32    18    19   ar
    33    18    22   ar
    34    18    23    1
    35     9    10    1
    36     9    11    1
    37    10    12    1
    38    11     5    1
    39    33    34    1
    40    33    35    1
    41    34    36    1
    42    35    37    1
    43    37    43    1
    44    20    21   ar
    45    21    22   ar
@<TRIPOS>MOLECULE
*****
 43 45 0 0 0
SMALL
GASTEIGER

@<TRIPOS>ATOM
      1 P          22.8984   72.7102   -3.8011 P.3     1  UNL1        0.2189
      2 O          22.3284   71.2068   -3.6176 O.co2   1  UNL1       -0.4371
      3 O          24.3151   72.7956   -4.2883 O.2     1  UNL1       -0.5170
      4 O          22.6022   73.4147   -2.3749 O.3     1  UNL1       -0.3112
      5 C          21.5968   74.4094   -2.3080 C.3     1  UNL1        0.1811
      6 O          20.8650   72.6604   -0.8304 O.3     1  UNL1       -0.3308
      7 O          18.7317   74.5667    0.0678 O.3     1  UNL1       -0.3794
      8 O          20.5723   74.7448    2.0719 O.3     1  UNL1       -0.3779
      9 C          20.0828   74.8344   -0.3081 C.3     1  UNL1        0.1713
     10 C          21.0296   74.3858    0.7849 C.3     1  UNL1        0.1895
     11 C          20.4474   73.8960   -1.4504 C.3     1  UNL1        0.1764
     12 C          21.0638   72.8816    0.5748 C.3     1  UNL1        0.2383
     13 H          18.4759   75.1544    0.7964 H       1  UNL1        0.2105
     14 H          20.5691   75.7117    2.1559 H       1  UNL1        0.2106
     15 O          21.4767   70.1229    1.0167 O.2     1  UNL1       -0.2464
     16 O          25.9163   70.7704    2.0725 O.2     1  UNL1       -0.2670
     17 N          22.3176   72.3021    0.9659 N.ar    1  UNL1       -0.2551
     18 N          23.6873   70.4481    1.5432 N.ar    1  UNL1       -0.2743
     19 C          22.4185   70.9045    1.1623 C.ar    1  UNL1        0.3323
     20 C          23.4300   73.1144    1.1493 C.ar    1  UNL1        0.0869
     21 C          24.6329   72.6648    1.5123 C.ar    1  UNL1        0.0795
     22 C          24.8231   71.2171    1.7385 C.ar    1  UNL1        0.2626
     23 H          23.7816   69.4788    1.6877 H       1  UNL1        0.1734
     24 O          21.8078   73.3950   -4.7781 O.3     1  UNL1       -0.2703
     25 P          21.5181   73.1889   -6.3552 P.3     1  UNL1        0.2208
     26 O          22.6416   72.1117   -6.8000 O.co2   1  UNL1       -0.4371
     27 O          21.5291   74.4597   -7.1546 O.2     1  UNL1       -0.5170
     28 O          20.1271   72.3738   -6.4128 O.3     1  UNL1       -0.2858
     29 O          19.5332   70.2180   -5.6323 O.3     1  UNL1       -0.3226
     30 O          17.2671   70.5201   -9.0734 O.3     1  UNL1       -0.3794
     31 O          20.0348   71.4544   -9.0362 O.3     1  UNL1       -0.3775
     32 O          16.0117   70.8194   -6.4685 O.3     1  UNL1       -0.3792
     33 C          17.9359   71.0003   -7.9072 C.3     1  UNL1        0.1718
     34 C          19.4282   70.6828   -8.0059 C.3     1  UNL1        0.1968
     35 C          17.3230   70.3039   -6.6901 C.3     1  UNL1        0.1723
     36 C          20.1380   70.9732   -6.6827 C.3     1  UNL1        0.2706
     37 C          18.1581   70.5388   -5.4347 C.3     1  UNL1        0.1830
     38 H          17.6400   70.9489   -9.8598 H       1  UNL1        0.2105
     39 H          19.5891   71.2754   -9.8786 H       1  UNL1        0.2106
     40 H          15.4700   70.6763   -7.2603 H       1  UNL1        0.2106
     41 O          16.9147   68.6475   -4.8195 O.co2   1  UNL1       -0.5466
     42 O          18.1135   69.6827   -3.1793 O.co2   1  UNL1       -0.5466
     43 C          17.7491   69.6043   -4.3430 C.2     1  UNL1        0.0799
@<TRIPOS>UNITY_ATOM_ATTR
2 1
charge -1
26 1
charge -1
41 1
charge -1
@<TRIPOS>BOND
     1     1     4    1
     2     1    24    1
     3     1     2    1
     4     1     3    2
     5    25    28    1
     6    25    24    1
     7    25    26    1
     8    25    27    2
     9     6    11    1
    10     6    12    1
    11    29    36    1
    12    29    37    1
    13     7     9    1
    14     7    13    1
    15     8    10    1
    16     8    14    1
    17     4     5    1
    18    28    36    1
    19    30    33    1
    20    30    38    1
    21    31    34    1
    22    31    39    1
    23    32    35    1
    24    32    40    1
    25    41    43   ar
    26    15    19    2
    27    42    43   ar
    28    16    22    2
    29    17    12    1
    30    17    19   ar
    31    17    20   ar
    32    18    19   ar
    33    18    22   ar
    34    18    23    1
    35     9    10    1
    36     9    11    1
    37    10    12    1
    38    11     5    1
    39    33    34    1
    40    33    35    1
    41    34    36    1
    42    35    37    1
    43    37    43    1
    44    20    21   ar
    45    21    22   ar
@<TRIPOS>MOLECULE
*****
 43 45 0 0 0
SMALL
GASTEIGER

@<TRIPOS>ATOM
      1 P          20.9586   72.2234   -1.6671 P.3     1  UNL1        0.2189
      2 O          20.4996   73.6432   -1.0406 O.co2   1  UNL1       -0.4371
      3 O          22.0735   72.3035   -2.6682 O.2     1  UNL1       -0.5170
      4 O          19.5784   71.5710   -2.2032 O.3     1  UNL1       -0.3112
      5 C          19.0941   71.9634   -3.4744 C.3     1  UNL1        0.1811
      6 O          17.1853   71.8482   -4.9308 O.3     1  UNL1       -0.3308
      7 O          15.9695   70.0218   -2.8869 O.3     1  UNL1       -0.3794
      8 O          16.8471   68.2816   -4.7942 O.3     1  UNL1       -0.3779
      9 C          17.3315   70.1371   -3.2993 C.3     1  UNL1        0.1713
     10 C          17.5190   69.5173   -4.6679 C.3     1  UNL1        0.1895
     11 C          17.6163   71.6075   -3.5737 C.3     1  UNL1        0.1764
     12 C          16.9481   70.5893   -5.5805 C.3     1  UNL1        0.2383
     13 H          15.7639   69.0908   -2.7059 H       1  UNL1        0.2105
     14 H          17.2477   67.6329   -4.1935 H       1  UNL1        0.2106
     15 O          15.5571   70.4868   -8.0363 O.2     1  UNL1       -0.2464
     16 O          19.4691   70.6496  -10.4681 O.2     1  UNL1       -0.2670
     17 N          17.5783   70.6035   -6.8703 N.ar    1  UNL1       -0.2551
     18 N          17.5069   70.5670   -9.2451 N.ar    1  UNL1       -0.2743
     19 C          16.7880   70.5481   -8.0427 C.ar    1  UNL1        0.3323
     20 C          18.9629   70.6733   -6.9650 C.ar    1  UNL1        0.0869
     21 C          19.6339   70.6906   -8.1184 C.ar    1  UNL1        0.0795
     22 C          18.8831   70.6350   -9.3898 C.ar    1  UNL1        0.2626
     23 H          16.9784   70.5272  -10.0748 H       1  UNL1        0.1734
     24 O          21.2932   71.3394   -0.3558 O.3     1  UNL1       -0.2703
     25 P          22.4819   71.4633    0.7328 P.3     1  UNL1        0.2208
     26 O          23.5069   72.5096    0.0437 O.co2   1  UNL1       -0.4371
     27 O          23.1030   70.1520    1.1183 O.2     1  UNL1       -0.5170
     28 O          21.8291   72.2814    1.9604 O.3     1  UNL1       -0.2858
     29 O          21.0817   74.5154    2.2056 O.3     1  UNL1       -0.3226
     30 O          22.7592   73.7788    5.9085 O.3     1  UNL1       -0.3794
     31 O          24.0889   72.8666    3.4725 O.3     1  UNL1       -0.3775
     32 O          19.8693   73.8015    5.5942 O.3     1  UNL1       -0.3792
     33 C          22.0779   73.4501    4.6978 C.3     1  UNL1        0.1718
     34 C          22.9804   73.7582    3.5029 C.3     1  UNL1        0.1968
     35 C          20.8006   74.2903    4.6308 C.3     1  UNL1        0.1723
     36 C          22.2081   73.6376    2.1884 C.3     1  UNL1        0.2706
     37 C          20.1572   74.2166    3.2491 C.3     1  UNL1        0.1830
     38 H          23.5745   73.2568    5.9730 H       1  UNL1        0.2105
     39 H          24.5834   72.9378    4.3037 H       1  UNL1        0.2106
     40 H          20.2666   73.8429    6.4781 H       1  UNL1        0.2106
     41 O          19.2834   76.2525    4.0192 O.co2   1  UNL1       -0.5466
     42 O          18.2382   75.2777    2.2427 O.co2   1  UNL1       -0.5466
     43 C          19.1179   75.2782    3.0907 C.2     1  UNL1        0.0799
@<TRIPOS>UNITY_ATOM_ATTR
2 1
charge -1
26 1
charge -1
41 1
charge -1
@<TRIPOS>BOND
     1     1     4    1
     2     1    24    1
     3     1     2    1
     4     1     3    2
     5    25    28    1
     6    25    24    1
     7    25    26    1
     8    25    27    2
     9     6    11    1
    10     6    12    1
    11    29    36    1
    12    29    37    1
    13     7     9    1
    14     7    13    1
    15     8    10    1
    16     8    14    1
    17     4     5    1
    18    28    36    1
    19    30    33    1
    20    30    38    1
    21    31    34    1
    22    31    39    1
    23    32    35    1
    24    32    40    1
    25    41    43   ar
    26    15    19    2
    27    42    43   ar
    28    16    22    2
    29    17    12    1
    30    17    19   ar
    31    17    20   ar
    32    18    19   ar
    33    18    22   ar
    34    18    23    1
    35     9    10    1
    36     9    11    1
    37    10    12    1
    38    11     5    1
    39    33    34    1
    40    33    35    1
    41    34    36    1
    42    35    37    1
    43    37    43    1
    44    20    21   ar
    45    21    22   ar
@<TRIPOS>MOLECULE
*****
 43 45 0 0 0
SMALL
GASTEIGER

@<TRIPOS>ATOM
      1 P          20.5736   71.4625   -4.0225 P.3     1  UNL1        0.2189
      2 O          19.5788   72.2650   -3.0299 O.co2   1  UNL1       -0.4371
      3 O          20.7033   72.0474   -5.3983 O.2     1  UNL1       -0.5170
      4 O          20.0413   69.9361   -3.9553 O.3     1  UNL1       -0.3112
      5 C          19.1717   69.5691   -2.9000 C.3     1  UNL1        0.1811
      6 O          16.8481   69.0647   -2.5477 O.3     1  UNL1       -0.3308
      7 O          16.6977   68.5766   -5.5025 O.3     1  UNL1       -0.3794
      8 O          15.6322   71.0747   -5.2562 O.3     1  UNL1       -0.3779
      9 C          17.4625   69.5451   -4.7843 C.3     1  UNL1        0.1713
     10 C          16.5635   70.6546   -4.2812 C.3     1  UNL1        0.1895
     11 C          17.9334   68.9033   -3.4864 C.3     1  UNL1        0.1764
     12 C          15.8993   70.0023   -3.0807 C.3     1  UNL1        0.2383
     13 H          16.3858   68.9638   -6.3359 H       1  UNL1        0.2105
     14 H          16.1042   71.4832   -5.9993 H       1  UNL1        0.2106
     15 O          13.8088   69.6549   -1.2137 O.2     1  UNL1       -0.2464
     16 O          14.6791   73.7130    0.7910 O.2     1  UNL1       -0.2670
     17 N          15.5578   70.9523   -2.0600 N.ar    1  UNL1       -0.2551
     18 N          14.2436   71.6768   -0.2177 N.ar    1  UNL1       -0.2743
     19 C          14.4895   70.6815   -1.1726 C.ar    1  UNL1        0.3323
     20 C          16.2779   72.1351   -1.9444 C.ar    1  UNL1        0.0869
     21 C          16.0318   73.0743   -1.0290 C.ar    1  UNL1        0.0795
     22 C          14.9318   72.8695   -0.0639 C.ar    1  UNL1        0.2626
     23 H          13.5033   71.5117    0.4100 H       1  UNL1        0.1734
     24 O          21.9537   71.4034   -3.1831 O.3     1  UNL1       -0.2703
     25 P          23.1593   72.4718   -3.0461 P.3     1  UNL1        0.2208
     26 O          22.4137   73.8966   -3.2318 O.co2   1  UNL1       -0.4371
     27 O          24.2977   72.2410   -3.9973 O.2     1  UNL1       -0.5170
     28 O          23.5703   72.4275   -1.4868 O.3     1  UNL1       -0.2858
     29 O          23.6941   70.8940    0.3138 O.3     1  UNL1       -0.3226
     30 O          21.5995   74.0218    2.0160 O.3     1  UNL1       -0.3794
     31 O          20.9991   73.1447   -0.7051 O.3     1  UNL1       -0.3775
     32 O          24.4044   73.6195    2.6653 O.3     1  UNL1       -0.3792
     33 C          22.5494   73.4124    1.1418 C.3     1  UNL1        0.1718
     34 C          21.8327   72.4383    0.2064 C.3     1  UNL1        0.1968
     35 C          23.5741   72.6686    2.0013 C.3     1  UNL1        0.1723
     36 C          22.8377   71.6000   -0.5849 C.3     1  UNL1        0.2706
     37 C          24.4571   71.7583    1.1527 C.3     1  UNL1        0.1830
     38 H          20.9380   74.5005    1.4920 H       1  UNL1        0.2105
     39 H          20.3591   73.6789   -0.2098 H       1  UNL1        0.2106
     40 H          23.8545   74.2052    3.2088 H       1  UNL1        0.2106
     41 O          26.5536   70.9862    1.8671 O.co2   1  UNL1       -0.5466
     42 O          24.7141   69.9723    2.7544 O.co2   1  UNL1       -0.5466
     43 C          25.2179   70.8039    2.0144 C.2     1  UNL1        0.0799
@<TRIPOS>UNITY_ATOM_ATTR
2 1
charge -1
26 1
charge -1
41 1
charge -1
@<TRIPOS>BOND
     1     1     4    1
     2     1    24    1
     3     1     2    1
     4     1     3    2
     5    25    28    1
     6    25    24    1
     7    25    26    1
     8    25    27    2
     9     6    11    1
    10     6    12    1
    11    29    36    1
    12    29    37    1
    13     7     9    1
    14     7    13    1
    15     8    10    1
    16     8    14    1
    17     4     5    1
    18    28    36    1
    19    30    33    1
    20    30    38    1
    21    31    34    1
    22    31    39    1
    23    32    35    1
    24    32    40    1
    25    41    43   ar
    26    15    19    2
    27    42    43   ar
    28    16    22    2
    29    17    12    1
    30    17    19   ar
    31    17    20   ar
    32    18    19   ar
    33    18    22   ar
    34    18    23    1
    35     9    10    1
    36     9    11    1
    37    10    12    1
    38    11     5    1
    39    33    34    1
    40    33    35    1
    41    34    36    1
    42    35    37    1
    43    37    43    1
    44    20    21   ar
    45    21    22   ar
@<TRIPOS>MOLECULE
*****
 43 45 0 0 0
SMALL
GASTEIGER

@<TRIPOS>ATOM
      1 P          21.4515   74.2655   -1.9608 P.3     1  UNL1        0.2189
      2 O          21.8366   74.0898   -3.5228 O.co2   1  UNL1       -0.4371
      3 O          20.6787   75.5099   -1.6349 O.2     1  UNL1       -0.5170
      4 O          22.8641   74.0939   -1.1908 O.3     1  UNL1       -0.3112
      5 C          22.8540   73.9605    0.2187 C.3     1  UNL1        0.1811
      6 O          24.2621   72.1506    0.9393 O.3     1  UNL1       -0.3308
      7 O          21.7330   70.7359    1.7099 O.3     1  UNL1       -0.3794
      8 O          22.6425   71.6763    4.1025 O.3     1  UNL1       -0.3779
      9 C          22.0506   72.1257    1.7874 C.3     1  UNL1        0.1713
     10 C          23.0051   72.3822    2.9343 C.3     1  UNL1        0.1895
     11 C          22.9037   72.4808    0.5773 C.3     1  UNL1        0.1764
     12 C          24.3283   71.9124    2.3543 C.3     1  UNL1        0.2383
     13 H          21.1882   70.4854    2.4728 H       1  UNL1        0.2105
     14 H          21.7940   72.0122    4.4329 H       1  UNL1        0.2106
     15 O          26.9858   70.9562    2.3460 O.2     1  UNL1       -0.2464
     16 O          28.5477   74.7417    4.4613 O.2     1  UNL1       -0.2670
     17 N          25.4489   72.6277    2.8962 N.ar    1  UNL1       -0.2551
     18 N          27.7610   72.8421    3.4004 N.ar    1  UNL1       -0.2743
     19 C          26.7430   72.0582    2.8417 C.ar    1  UNL1        0.3323
     20 C          25.2608   73.8784    3.4716 C.ar    1  UNL1        0.0869
     21 C          26.2410   74.6138    4.0000 C.ar    1  UNL1        0.0795
     22 C          27.6230   74.0909    3.9843 C.ar    1  UNL1        0.2626
     23 H          28.6704   72.4656    3.3761 H       1  UNL1        0.1734
     24 O          20.6815   72.8859   -1.6195 O.3     1  UNL1       -0.2703
     25 P          20.6933   71.4513   -2.3648 P.3     1  UNL1        0.2208
     26 O          19.6790   70.5615   -1.4705 O.co2   1  UNL1       -0.4371
     27 O          22.0607   70.8534   -2.5282 O.2     1  UNL1       -0.5170
     28 O          19.9028   71.7025   -3.7485 O.3     1  UNL1       -0.2858
     29 O          18.8339   70.3620   -5.3823 O.3     1  UNL1       -0.3226
     30 O          20.8913   73.0682   -7.7300 O.3     1  UNL1       -0.3794
     31 O          22.1534   71.8941   -5.3714 O.3     1  UNL1       -0.3775
     32 O          18.0183   73.3336   -7.3740 O.3     1  UNL1       -0.3792
     33 C          20.1777   72.6214   -6.5771 C.3     1  UNL1        0.1718
     34 C          20.9239   71.4518   -5.9348 C.3     1  UNL1        0.1968
     35 C          18.7826   72.1807   -7.0258 C.3     1  UNL1        0.1723
     36 C          20.0797   70.7999   -4.8388 C.3     1  UNL1        0.2706
     37 C          18.0526   71.4282   -5.9170 C.3     1  UNL1        0.1830
     38 H          21.7812   73.3534   -7.4693 H       1  UNL1        0.2105
     39 H          22.6940   72.3090   -6.0614 H       1  UNL1        0.2106
     40 H          18.4721   73.8216   -8.0788 H       1  UNL1        0.2106
     41 O          15.8935   71.6177   -6.8136 O.co2   1  UNL1       -0.5466
     42 O          16.7358   69.5134   -6.5658 O.co2   1  UNL1       -0.5466
     43 C          16.8496   70.7250   -6.4562 C.2     1  UNL1        0.0799
@<TRIPOS>UNITY_ATOM_ATTR
2 1
charge -1
26 1
charge -1
41 1
charge -1
@<TRIPOS>BOND
     1     1     4    1
     2     1    24    1
     3     1     2    1
     4     1     3    2
     5    25    28    1
     6    25    24    1
     7    25    26    1
     8    25    27    2
     9     6    11    1
    10     6    12    1
    11    29    36    1
    12    29    37    1
    13     7     9    1
    14     7    13    1
    15     8    10    1
    16     8    14    1
    17     4     5    1
    18    28    36    1
    19    30    33    1
    20    30    38    1
    21    31    34    1
    22    31    39    1
    23    32    35    1
    24    32    40    1
    25    41    43   ar
    26    15    19    2
    27    42    43   ar
    28    16    22    2
    29    17    12    1
    30    17    19   ar
    31    17    20   ar
    32    18    19   ar
    33    18    22   ar
    34    18    23    1
    35     9    10    1
    36     9    11    1
    37    10    12    1
    38    11     5    1
    39    33    34    1
    40    33    35    1
    41    34    36    1
    42    35    37    1
    43    37    43    1
    44    20    21   ar
    45    21    22   ar
@<TRIPOS>MOLECULE
*****
 43 45 0 0 0
SMALL
GASTEIGER

@<TRIPOS>ATOM
      1 P          22.6961   71.7219   -2.8235 P.3     1  UNL1        0.2189
      2 O          24.1625   71.5415   -3.4839 O.co2   1  UNL1       -0.4371
      3 O          22.4857   70.9807   -1.5358 O.2     1  UNL1       -0.5170
      4 O          21.6799   71.3454   -4.0250 O.3     1  UNL1       -0.3112
      5 C          21.5098   72.2719   -5.0819 C.3     1  UNL1        0.1811
      6 O          20.1991   70.4593   -5.9617 O.3     1  UNL1       -0.3308
      7 O          20.4904   71.7907   -8.6326 O.3     1  UNL1       -0.3794
      8 O          17.9755   72.5220   -7.8734 O.3     1  UNL1       -0.3779
      9 C          20.3436   72.3799   -7.3404 C.3     1  UNL1        0.1713
     10 C          18.9154   72.2373   -6.8585 C.3     1  UNL1        0.1895
     11 C          21.1043   71.5182   -6.3420 C.3     1  UNL1        0.1764
     12 C          18.8756   70.7847   -6.4155 C.3     1  UNL1        0.2383
     13 H          20.0126   72.3239   -9.2877 H       1  UNL1        0.2105
     14 H          18.0401   73.4584   -8.1204 H       1  UNL1        0.2106
     15 O          16.6711   69.0246   -6.5519 O.2     1  UNL1       -0.2464
     16 O          15.3786   70.0174   -2.2406 O.2     1  UNL1       -0.2670
     17 N          17.9469   70.5640   -5.3432 N.ar    1  UNL1       -0.2551
     18 N          16.0289   69.5215   -4.4049 N.ar    1  UNL1       -0.2743
     19 C          16.8731   69.6586   -5.5146 C.ar    1  UNL1        0.3323
     20 C          18.1052   71.2387   -4.1388 C.ar    1  UNL1        0.0869
     21 C          17.2923   71.0975   -3.0899 C.ar    1  UNL1        0.0795
     22 C          16.1452   70.1711   -3.1866 C.ar    1  UNL1        0.2626
     23 H          15.2729   68.8981   -4.5010 H       1  UNL1        0.1734
     24 O          22.5446   73.3271   -2.7090 O.3     1  UNL1       -0.2703
     25 P          23.6162   74.4683   -2.3050 P.3     1  UNL1        0.2208
     26 O          22.6898   75.7699   -2.0445 O.co2   1  UNL1       -0.4371
     27 O          24.7050   74.6767   -3.3174 O.2     1  UNL1       -0.5170
     28 O          24.1375   74.0397   -0.8397 O.3     1  UNL1       -0.2858
     29 O          22.7949   73.3550    0.9872 O.3     1  UNL1       -0.3226
     30 O          26.1027   74.9114    2.9117 O.3     1  UNL1       -0.3794
     31 O          24.9585   76.2760    0.5959 O.3     1  UNL1       -0.3775
     32 O          25.7387   72.0327    2.7330 O.3     1  UNL1       -0.3792
     33 C          25.3970   74.2523    1.8603 C.3     1  UNL1        0.1718
     34 C          24.3401   75.1949    1.2841 C.3     1  UNL1        0.1968
     35 C          24.7340   73.0036    2.4459 C.3     1  UNL1        0.1723
     36 C          23.4145   74.4540    0.3181 C.3     1  UNL1        0.2706
     37 C          23.7322   72.3946    1.4691 C.3     1  UNL1        0.1830
     38 H          26.5324   75.7083    2.5631 H       1  UNL1        0.2105
     39 H          25.5475   76.7504    1.2029 H       1  UNL1        0.2106
     40 H          26.3828   72.4078    3.3537 H       1  UNL1        0.2106
     41 O          23.1702   71.3171    3.4752 O.co2   1  UNL1       -0.5466
     42 O          21.9909   70.7308    1.6138 O.co2   1  UNL1       -0.5466
     43 C          22.8627   71.3929    2.1566 C.2     1  UNL1        0.0799
@<TRIPOS>UNITY_ATOM_ATTR
2 1
charge -1
26 1
charge -1
41 1
charge -1
@<TRIPOS>BOND
     1     1     4    1
     2     1    24    1
     3     1     2    1
     4     1     3    2
     5    25    28    1
     6    25    24    1
     7    25    26    1
     8    25    27    2
     9     6    11    1
    10     6    12    1
    11    29    36    1
    12    29    37    1
    13     7     9    1
    14     7    13    1
    15     8    10    1
    16     8    14    1
    17     4     5    1
    18    28    36    1
    19    30    33    1
    20    30    38    1
    21    31    34    1
    22    31    39    1
    23    32    35    1
    24    32    40    1
    25    41    43   ar
    26    15    19    2
    27    42    43   ar
    28    16    22    2
    29    17    12    1
    30    17    19   ar
    31    17    20   ar
    32    18    19   ar
    33    18    22   ar
    34    18    23    1
    35     9    10    1
    36     9    11    1
    37    10    12    1
    38    11     5    1
    39    33    34    1
    40    33    35    1
    41    34    36    1
    42    35    37    1
    43    37    43    1
    44    20    21   ar
    45    21    22   ar
@<TRIPOS>MOLECULE
*****
 43 45 0 0 0
SMALL
GASTEIGER

@<TRIPOS>ATOM
      1 P          23.4490   72.2944   -3.5076 P.3     1  UNL1        0.2189
      2 O          24.0860   70.8389   -3.2002 O.co2   1  UNL1       -0.4371
      3 O          24.4298   73.3291   -3.9759 O.2     1  UNL1       -0.5170
      4 O          22.6373   72.6567   -2.1556 O.3     1  UNL1       -0.3112
      5 C          23.3601   72.7732   -0.9438 C.3     1  UNL1        0.1811
      6 O          24.4018   71.2931    0.6380 O.3     1  UNL1       -0.3308
      7 O          21.6598   70.1796    1.1203 O.3     1  UNL1       -0.3794
      8 O          22.0153   71.8345    3.2582 O.3     1  UNL1       -0.3779
      9 C          22.0537   71.5244    0.8469 C.3     1  UNL1        0.1713
     10 C          22.7100   72.1365    2.0662 C.3     1  UNL1        0.1895
     11 C          23.2055   71.4835   -0.1481 C.3     1  UNL1        0.1764
     12 C          24.0958   71.5155    2.0237 C.3     1  UNL1        0.2383
     13 H          20.9248   70.1800    1.7539 H       1  UNL1        0.2105
     14 H          21.1396   72.2525    3.2368 H       1  UNL1        0.2106
     15 O          26.7893   70.7688    2.4287 O.2     1  UNL1       -0.2464
     16 O          27.8529   74.8845    4.2102 O.2     1  UNL1       -0.2670
     17 N          25.0979   72.3724    2.5915 N.ar    1  UNL1       -0.2551
     18 N          27.3162   72.8191    3.3166 N.ar    1  UNL1       -0.2743
     19 C          26.4220   71.9000    2.7521 C.ar    1  UNL1        0.3323
     20 C          24.7661   73.6644    2.9808 C.ar    1  UNL1        0.0869
     21 C          25.6295   74.5290    3.5173 C.ar    1  UNL1        0.0795
     22 C          27.0331   74.1140    3.7199 C.ar    1  UNL1        0.2626
     23 H          28.2435   72.5123    3.4402 H       1  UNL1        0.1734
     24 O          22.2695   71.9592   -4.5608 O.3     1  UNL1       -0.2703
     25 P          21.5680   72.8730   -5.6950 P.3     1  UNL1        0.2208
     26 O          22.4400   72.5518   -7.0204 O.co2   1  UNL1       -0.4371
     27 O          21.4859   74.3312   -5.3472 O.2     1  UNL1       -0.5170
     28 O          20.1423   72.1678   -5.9648 O.3     1  UNL1       -0.2858
     29 O          19.3897   69.9953   -5.3968 O.3     1  UNL1       -0.3226
     30 O          17.3423   70.7010   -8.9150 O.3     1  UNL1       -0.3794
     31 O          20.1497   71.4665   -8.6563 O.3     1  UNL1       -0.3775
     32 O          15.9589   70.8655   -6.3635 O.3     1  UNL1       -0.3792
     33 C          17.9687   71.0473   -7.6798 C.3     1  UNL1        0.1718
     34 C          19.4449   70.6523   -7.7262 C.3     1  UNL1        0.1968
     35 C          17.2510   70.2935   -6.5579 C.3     1  UNL1        0.1723
     36 C          20.0930   70.7948   -6.3484 C.3     1  UNL1        0.2706
     37 C          18.0248   70.3790   -5.2455 C.3     1  UNL1        0.1830
     38 H          17.7818   71.1684   -9.6428 H       1  UNL1        0.2105
     39 H          19.7437   71.3811   -9.5328 H       1  UNL1        0.2106
     40 H          15.4561   70.8175   -7.1916 H       1  UNL1        0.2106
     41 O          16.7540   68.4423   -4.8772 O.co2   1  UNL1       -0.5466
     42 O          17.7230   69.4126   -3.0555 O.co2   1  UNL1       -0.5466
     43 C          17.5048   69.3863   -4.2574 C.2     1  UNL1        0.0799
@<TRIPOS>UNITY_ATOM_ATTR
2 1
charge -1
26 1
charge -1
41 1
charge -1
@<TRIPOS>BOND
     1     1     4    1
     2     1    24    1
     3     1     2    1
     4     1     3    2
     5    25    28    1
     6    25    24    1
     7    25    26    1
     8    25    27    2
     9     6    11    1
    10     6    12    1
    11    29    36    1
    12    29    37    1
    13     7     9    1
    14     7    13    1
    15     8    10    1
    16     8    14    1
    17     4     5    1
    18    28    36    1
    19    30    33    1
    20    30    38    1
    21    31    34    1
    22    31    39    1
    23    32    35    1
    24    32    40    1
    25    41    43   ar
    26    15    19    2
    27    42    43   ar
    28    16    22    2
    29    17    12    1
    30    17    19   ar
    31    17    20   ar
    32    18    19   ar
    33    18    22   ar
    34    18    23    1
    35     9    10    1
    36     9    11    1
    37    10    12    1
    38    11     5    1
    39    33    34    1
    40    33    35    1
    41    34    36    1
    42    35    37    1
    43    37    43    1
    44    20    21   ar
    45    21    22   ar
@<TRIPOS>MOLECULE
*****
 43 45 0 0 0
SMALL
GASTEIGER

@<TRIPOS>ATOM
      1 P          21.8426   72.4261   -5.7029 P.3     1  UNL1        0.2189
      2 O          21.1277   73.8140   -5.2770 O.co2   1  UNL1       -0.4371
      3 O          23.0622   72.5797   -6.5636 O.2     1  UNL1       -0.5170
      4 O          20.6405   71.5488   -6.3379 O.3     1  UNL1       -0.3112
      5 C          20.1375   71.9121   -7.6105 C.3     1  UNL1        0.1811
      6 O          18.8895   69.9036   -7.1788 O.3     1  UNL1       -0.3308
      7 O          18.0990   69.9953  -10.0699 O.3     1  UNL1       -0.3794
      8 O          15.8903   70.9886   -8.8164 O.3     1  UNL1       -0.3779
      9 C          18.2970   71.0714   -9.1526 C.3     1  UNL1        0.1713
     10 C          17.1402   71.1498   -8.1790 C.3     1  UNL1        0.1895
     11 C          19.4579   70.7025   -8.2391 C.3     1  UNL1        0.1764
     12 C          17.4581   70.0156   -7.2196 C.3     1  UNL1        0.2383
     13 H          17.3620   70.2081  -10.6642 H       1  UNL1        0.2105
     14 H          15.7344   71.7356   -9.4161 H       1  UNL1        0.2106
     15 O          16.3018   68.0563   -5.5461 O.2     1  UNL1       -0.2464
     16 O          15.6256   71.0959   -2.1479 O.2     1  UNL1       -0.2670
     17 N          16.9714   70.2677   -5.8928 N.ar    1  UNL1       -0.2551
     18 N          15.9652   69.5723   -3.8556 N.ar    1  UNL1       -0.2743
     19 C          16.4081   69.2135   -5.1355 C.ar    1  UNL1        0.3323
     20 C          17.0560   71.5458   -5.3541 C.ar    1  UNL1        0.0869
     21 C          16.6297   71.8724   -4.1325 C.ar    1  UNL1        0.0795
     22 C          16.0274   70.8294   -3.2765 C.ar    1  UNL1        0.2626
     23 H          15.5673   68.8556   -3.3102 H       1  UNL1        0.1734
     24 O          22.1082   71.7036   -4.2815 O.3     1  UNL1       -0.2703
     25 P          23.2627   71.9333   -3.1734 P.3     1  UNL1        0.2208
     26 O          23.9236   73.3436   -3.6147 O.co2   1  UNL1       -0.4371
     27 O          24.2413   70.8005   -3.0597 O.2     1  UNL1       -0.5170
     28 O          22.4632   72.2666   -1.8124 O.3     1  UNL1       -0.2858
     29 O          23.0476   70.7119   -0.1240 O.3     1  UNL1       -0.3226
     30 O          20.1609   72.9737    1.7785 O.3     1  UNL1       -0.3794
     31 O          19.8047   72.1536   -1.0027 O.3     1  UNL1       -0.3775
     32 O          22.9706   73.3545    2.4202 O.3     1  UNL1       -0.3792
     33 C          21.2351   72.7277    0.8710 C.3     1  UNL1        0.1718
     34 C          20.8184   71.6562   -0.1368 C.3     1  UNL1        0.1968
     35 C          22.4417   72.2533    1.6839 C.3     1  UNL1        0.1723
     36 C          22.0124   71.2016   -0.9773 C.3     1  UNL1        0.2706
     37 C          23.5391   71.6988    0.7801 C.3     1  UNL1        0.1830
     38 H          19.3828   73.2764    1.2843 H       1  UNL1        0.2105
     39 H          19.0441   72.4441   -0.4760 H       1  UNL1        0.2106
     40 H          22.2820   73.7167    2.9994 H       1  UNL1        0.2106
     41 O          24.1101   70.7382    2.8424 O.co2   1  UNL1       -0.5466
     42 O          25.6361   70.5665    1.1569 O.co2   1  UNL1       -0.5466
     43 C          24.5541   70.9469    1.5781 C.2     1  UNL1        0.0799
@<TRIPOS>UNITY_ATOM_ATTR
2 1
charge -1
26 1
charge -1
41 1
charge -1
@<TRIPOS>BOND
     1     1     4    1
     2     1    24    1
     3     1     2    1
     4     1     3    2
     5    25    28    1
     6    25    24    1
     7    25    26    1
     8    25    27    2
     9     6    11    1
    10     6    12    1
    11    29    36    1
    12    29    37    1
    13     7     9    1
    14     7    13    1
    15     8    10    1
    16     8    14    1
    17     4     5    1
    18    28    36    1
    19    30    33    1
    20    30    38    1
    21    31    34    1
    22    31    39    1
    23    32    35    1
    24    32    40    1
    25    41    43   ar
    26    15    19    2
    27    42    43   ar
    28    16    22    2
    29    17    12    1
    30    17    19   ar
    31    17    20   ar
    32    18    19   ar
    33    18    22   ar
    34    18    23    1
    35     9    10    1
    36     9    11    1
    37    10    12    1
    38    11     5    1
    39    33    34    1
    40    33    35    1
    41    34    36    1
    42    35    37    1
    43    37    43    1
    44    20    21   ar
    45    21    22   ar
@<TRIPOS>MOLECULE
*****
 43 45 0 0 0
SMALL
GASTEIGER

@<TRIPOS>ATOM
      1 P          20.4432   72.2115   -0.9792 P.3     1  UNL1        0.2189
      2 O          20.4609   70.5934   -0.9677 O.co2   1  UNL1       -0.4371
      3 O          19.1298   72.8335   -0.6051 O.2     1  UNL1       -0.5170
      4 O          21.0104   72.5958   -2.4450 O.3     1  UNL1       -0.3112
      5 C          20.3508   72.0733   -3.5836 C.3     1  UNL1        0.1811
      6 O          20.7745   70.7955   -5.5749 O.3     1  UNL1       -0.3308
      7 O          23.1665   72.5592   -5.9739 O.3     1  UNL1       -0.3794
      8 O          21.3450   73.6260   -7.7002 O.3     1  UNL1       -0.3779
      9 C          21.8806   72.8862   -5.4468 C.3     1  UNL1        0.1713
     10 C          20.8576   72.9482   -6.5612 C.3     1  UNL1        0.1895
     11 C          21.3912   71.6975   -4.6308 C.3     1  UNL1        0.1764
     12 C          20.5905   71.4764   -6.8263 C.3     1  UNL1        0.2383
     13 H          23.4999   73.3039   -6.4993 H       1  UNL1        0.2105
     14 H          21.4990   74.5587   -7.4802 H       1  UNL1        0.2106
     15 O          19.9038   69.5421   -8.7663 O.2     1  UNL1       -0.2464
     16 O          15.4345   70.6479   -8.5516 O.2     1  UNL1       -0.2670
     17 N          19.2550   71.2377   -7.2957 N.ar    1  UNL1       -0.2551
     18 N          17.6786   70.0954   -8.6582 N.ar    1  UNL1       -0.2743
     19 C          19.0177   70.2423   -8.2729 C.ar    1  UNL1        0.3323
     20 C          18.1978   71.9833   -6.7884 C.ar    1  UNL1        0.0869
     21 C          16.9267   71.8317   -7.1654 C.ar    1  UNL1        0.0795
     22 C          16.5933   70.8135   -8.1829 C.ar    1  UNL1        0.2626
     23 H          17.4889   69.4098   -9.3390 H       1  UNL1        0.1734
     24 O          21.6724   72.5948   -0.0019 O.3     1  UNL1       -0.2703
     25 P          22.5846   71.6763    0.9665 P.3     1  UNL1        0.2208
     26 O          23.9073   71.3994    0.0753 O.co2   1  UNL1       -0.4371
     27 O          21.9009   70.4346    1.4609 O.2     1  UNL1       -0.5170
     28 O          23.0805   72.6764    2.1311 O.3     1  UNL1       -0.2858
     29 O          23.6824   72.9492    4.4054 O.3     1  UNL1       -0.3226
     30 O          20.1027   75.0043    4.2309 O.3     1  UNL1       -0.3794
     31 O          20.4072   72.4414    2.8621 O.3     1  UNL1       -0.3775
     32 O          22.6174   76.4595    4.3288 O.3     1  UNL1       -0.3792
     33 C          21.3433   74.5033    3.7331 C.3     1  UNL1        0.1718
     34 C          21.3400   72.9756    3.7945 C.3     1  UNL1        0.1968
     35 C          22.4660   75.0686    4.6059 C.3     1  UNL1        0.1723
     36 C          22.7285   72.4127    3.4880 C.3     1  UNL1        0.2706
     37 C          23.7934   74.3687    4.3286 C.3     1  UNL1        0.1830
     38 H          19.3743   74.6582    3.6915 H       1  UNL1        0.2105
     39 H          19.5240   72.7946    3.0505 H       1  UNL1        0.2106
     40 H          21.7794   76.9166    4.5011 H       1  UNL1        0.2106
     41 O          24.3198   74.3309    6.6140 O.co2   1  UNL1       -0.5466
     42 O          25.8877   75.1911    5.1996 O.co2   1  UNL1       -0.5466
     43 C          24.7925   74.6852    5.3934 C.2     1  UNL1        0.0799
@<TRIPOS>UNITY_ATOM_ATTR
2 1
charge -1
26 1
charge -1
41 1
charge -1
@<TRIPOS>BOND
     1     1     4    1
     2     1    24    1
     3     1     2    1
     4     1     3    2
     5    25    28    1
     6    25    24    1
     7    25    26    1
     8    25    27    2
     9     6    11    1
    10     6    12    1
    11    29    36    1
    12    29    37    1
    13     7     9    1
    14     7    13    1
    15     8    10    1
    16     8    14    1
    17     4     5    1
    18    28    36    1
    19    30    33    1
    20    30    38    1
    21    31    34    1
    22    31    39    1
    23    32    35    1
    24    32    40    1
    25    41    43   ar
    26    15    19    2
    27    42    43   ar
    28    16    22    2
    29    17    12    1
    30    17    19   ar
    31    17    20   ar
    32    18    19   ar
    33    18    22   ar
    34    18    23    1
    35     9    10    1
    36     9    11    1
    37    10    12    1
    38    11     5    1
    39    33    34    1
    40    33    35    1
    41    34    36    1
    42    35    37    1
    43    37    43    1
    44    20    21   ar
    45    21    22   ar
@<TRIPOS>MOLECULE
*****
 43 45 0 0 0
SMALL
GASTEIGER

@<TRIPOS>ATOM
      1 P          15.5399   70.0794   -1.8137 P.3     1  UNL1        0.2189
      2 O          14.6815   71.4513   -1.8229 O.co2   1  UNL1       -0.4371
      3 O          15.3027   69.1758   -2.9880 O.2     1  UNL1       -0.5170
      4 O          15.2322   69.4383   -0.3604 O.3     1  UNL1       -0.3112
      5 C          14.1464   68.5384   -0.2345 C.3     1  UNL1        0.1811
      6 O          12.2182   68.5549    1.2005 O.3     1  UNL1       -0.3308
      7 O          14.0598   67.6219    3.3753 O.3     1  UNL1       -0.3794
      8 O          12.8071   65.3185    2.6263 O.3     1  UNL1       -0.3779
      9 C          14.0660   67.2974    1.9849 C.3     1  UNL1        0.1713
     10 C          12.9340   66.3445    1.6641 C.3     1  UNL1        0.1895
     11 C          13.6622   68.5441    1.2097 C.3     1  UNL1        0.1764
     12 C          11.7343   67.2762    1.6410 C.3     1  UNL1        0.2383
     13 H          14.3147   66.8405    3.8911 H       1  UNL1        0.2105
     14 H          13.5952   64.7526    2.6015 H       1  UNL1        0.2106
     15 O           8.9632   67.5344    2.1212 O.2     1  UNL1       -0.2464
     16 O           7.8960   65.5237   -1.8866 O.2     1  UNL1       -0.2670
     17 N          10.7103   66.8288    0.7398 N.ar    1  UNL1       -0.2551
     18 N           8.4343   66.5318    0.1251 N.ar    1  UNL1       -0.2743
     19 C           9.3474   67.0060    1.0762 C.ar    1  UNL1        0.3323
     20 C          11.0594   66.2242   -0.4616 C.ar    1  UNL1        0.0869
     21 C          10.1778   65.7774   -1.3582 C.ar    1  UNL1        0.0795
     22 C           8.7333   65.9233   -1.0831 C.ar    1  UNL1        0.2626
     23 H           7.4794   66.6422    0.3381 H       1  UNL1        0.1734
     24 O          17.0614   70.6044   -1.6646 O.3     1  UNL1       -0.2703
     25 P          18.4069   70.2002   -2.4645 P.3     1  UNL1        0.2208
     26 O          18.1623   68.6440   -2.8371 O.co2   1  UNL1       -0.4371
     27 O          19.6761   70.4625   -1.7067 O.2     1  UNL1       -0.5170
     28 O          18.2951   70.9785   -3.8731 O.3     1  UNL1       -0.2858
     29 O          17.6238   70.3157   -6.0454 O.3     1  UNL1       -0.3226
     30 O          20.7361   72.9013   -6.8796 O.3     1  UNL1       -0.3794
     31 O          20.9538   70.9797   -4.6900 O.3     1  UNL1       -0.3775
     32 O          17.9850   73.7548   -7.2719 O.3     1  UNL1       -0.3792
     33 C          19.6231   72.3970   -6.1415 C.3     1  UNL1        0.1718
     34 C          19.9235   70.9735   -5.6714 C.3     1  UNL1        0.1968
     35 C          18.4012   72.4066   -7.0627 C.3     1  UNL1        0.1723
     36 C          18.6752   70.3181   -5.0789 C.3     1  UNL1        0.2706
     37 C          17.2392   71.6262   -6.4551 C.3     1  UNL1        0.1830
     38 H          21.5246   72.9045   -6.3143 H       1  UNL1        0.2105
     39 H          21.7489   71.3944   -5.0592 H       1  UNL1        0.2106
     40 H          18.7156   74.2625   -7.6583 H       1  UNL1        0.2106
     41 O          15.4552   72.4799   -7.7159 O.co2   1  UNL1       -0.5466
     42 O          15.9997   70.2888   -8.0350 O.co2   1  UNL1       -0.5466
     43 C          16.1846   71.3614   -7.4797 C.2     1  UNL1        0.0799
@<TRIPOS>UNITY_ATOM_ATTR
2 1
charge -1
26 1
charge -1
41 1
charge -1
@<TRIPOS>BOND
     1     1     4    1
     2     1    24    1
     3     1     2    1
     4     1     3    2
     5    25    28    1
     6    25    24    1
     7    25    26    1
     8    25    27    2
     9     6    11    1
    10     6    12    1
    11    29    36    1
    12    29    37    1
    13     7     9    1
    14     7    13    1
    15     8    10    1
    16     8    14    1
    17     4     5    1
    18    28    36    1
    19    30    33    1
    20    30    38    1
    21    31    34    1
    22    31    39    1
    23    32    35    1
    24    32    40    1
    25    41    43   ar
    26    15    19    2
    27    42    43   ar
    28    16    22    2
    29    17    12    1
    30    17    19   ar
    31    17    20   ar
    32    18    19   ar
    33    18    22   ar
    34    18    23    1
    35     9    10    1
    36     9    11    1
    37    10    12    1
    38    11     5    1
    39    33    34    1
    40    33    35    1
    41    34    36    1
    42    35    37    1
    43    37    43    1
    44    20    21   ar
    45    21    22   ar
@<TRIPOS>MOLECULE
*****
 43 45 0 0 0
SMALL
GASTEIGER

@<TRIPOS>ATOM
      1 P          22.7185   71.7713   -2.9239 P.3     1  UNL1        0.2189
      2 O          24.0208   71.9841   -3.8607 O.co2   1  UNL1       -0.4371
      3 O          22.8386   70.6690   -1.9128 O.2     1  UNL1       -0.5170
      4 O          21.5003   71.6273   -3.9790 O.3     1  UNL1       -0.3112
      5 C          21.4559   72.5100   -5.0851 C.3     1  UNL1        0.1811
      6 O          20.5105   70.5117   -6.0289 O.3     1  UNL1       -0.3308
      7 O          20.7779   71.8656   -8.6911 O.3     1  UNL1       -0.3794
      8 O          18.1322   72.1947   -8.1182 O.3     1  UNL1       -0.3779
      9 C          20.4497   72.4277   -7.4203 C.3     1  UNL1        0.1713
     10 C          19.0310   72.0637   -7.0368 C.3     1  UNL1        0.1895
     11 C          21.2635   71.6987   -6.3599 C.3     1  UNL1        0.1764
     12 C          19.1879   70.6240   -6.5779 C.3     1  UNL1        0.2383
     13 H          20.2701   72.3155   -9.3849 H       1  UNL1        0.2105
     14 H          18.0668   73.1290   -8.3729 H       1  UNL1        0.2106
     15 O          16.5666   69.7210   -7.1164 O.2     1  UNL1       -0.2464
     16 O          15.6057   69.2669   -2.6315 O.2     1  UNL1       -0.2670
     17 N          18.2317   70.2630   -5.5698 N.ar    1  UNL1       -0.2551
     18 N          16.0902   69.4967   -4.8822 N.ar    1  UNL1       -0.2743
     19 C          16.9413   69.8216   -5.9466 C.ar    1  UNL1        0.3323
     20 C          18.5758   70.3460   -4.2260 C.ar    1  UNL1        0.0869
     21 C          17.7537   70.0328   -3.2226 C.ar    1  UNL1        0.0795
     22 C          16.3868   69.5637   -3.5305 C.ar    1  UNL1        0.2626
     23 H          15.1857   69.1888   -5.1197 H       1  UNL1        0.1734
     24 O          22.4811   73.2405   -2.2932 O.3     1  UNL1       -0.2703
     25 P          21.5844   73.7247   -1.0382 P.3     1  UNL1        0.2208
     26 O          20.1651   72.9888   -1.2920 O.co2   1  UNL1       -0.4371
     27 O          21.4898   75.2154   -0.8876 O.2     1  UNL1       -0.5170
     28 O          22.2165   72.9619    0.2350 O.3     1  UNL1       -0.2858
     29 O          23.3403   74.3551    1.7859 O.3     1  UNL1       -0.3226
     30 O          24.4194   70.5906    3.1019 O.3     1  UNL1       -0.3794
     31 O          24.3716   71.2037    0.2460 O.3     1  UNL1       -0.3775
     32 O          22.4186   72.1245    4.5494 O.3     1  UNL1       -0.3792
     33 C          23.5665   71.5678    2.5055 C.3     1  UNL1        0.1718
     34 C          24.2572   72.1718    1.2825 C.3     1  UNL1        0.1968
     35 C          23.2876   72.6520    3.5488 C.3     1  UNL1        0.1723
     36 C          23.4785   73.3773    0.7542 C.3     1  UNL1        0.2706
     37 C          22.6225   73.8727    2.9195 C.3     1  UNL1        0.1830
     38 H          24.6105   69.8912    2.4572 H       1  UNL1        0.2105
     39 H          24.8645   70.4357    0.5744 H       1  UNL1        0.2106
     40 H          22.8301   71.3468    4.9577 H       1  UNL1        0.2106
     41 O          21.6117   74.9819    4.7222 O.co2   1  UNL1       -0.5466
     42 O          23.5001   75.9177    3.8519 O.co2   1  UNL1       -0.5466
     43 C          22.6541   75.0361    3.8565 C.2     1  UNL1        0.0799
@<TRIPOS>UNITY_ATOM_ATTR
2 1
charge -1
26 1
charge -1
41 1
charge -1
@<TRIPOS>BOND
     1     1     4    1
     2     1    24    1
     3     1     2    1
     4     1     3    2
     5    25    28    1
     6    25    24    1
     7    25    26    1
     8    25    27    2
     9     6    11    1
    10     6    12    1
    11    29    36    1
    12    29    37    1
    13     7     9    1
    14     7    13    1
    15     8    10    1
    16     8    14    1
    17     4     5    1
    18    28    36    1
    19    30    33    1
    20    30    38    1
    21    31    34    1
    22    31    39    1
    23    32    35    1
    24    32    40    1
    25    41    43   ar
    26    15    19    2
    27    42    43   ar
    28    16    22    2
    29    17    12    1
    30    17    19   ar
    31    17    20   ar
    32    18    19   ar
    33    18    22   ar
    34    18    23    1
    35     9    10    1
    36     9    11    1
    37    10    12    1
    38    11     5    1
    39    33    34    1
    40    33    35    1
    41    34    36    1
    42    35    37    1
    43    37    43    1
    44    20    21   ar
    45    21    22   ar
