@<TRIPOS>MOLECULE
*****
 43 45 0 0 0
SMALL
GASTEIGER

@<TRIPOS>ATOM
      1 P          23.0982   71.5959   -2.4343 P.3     1  UNL1        0.2189
      2 O          23.4613   73.0716   -1.8781 O.co2   1  UNL1       -0.4371
      3 O          24.2175   70.8937   -3.1454 O.2     1  UNL1       -0.5170
      4 O          21.7514   71.8278   -3.3005 O.3     1  UNL1       -0.3112
      5 C          20.9474   70.7053   -3.6137 C.3     1  UNL1        0.1811
      6 O          18.9307   71.6387   -4.5299 O.3     1  UNL1       -0.3308
      7 O          17.4945   70.2590   -2.2882 O.3     1  UNL1       -0.3794
      8 O          17.0387   68.5961   -4.4007 O.3     1  UNL1       -0.3779
      9 C          18.6313   69.8256   -3.0354 C.3     1  UNL1        0.1713
     10 C          18.2104   69.3842   -4.4211 C.3     1  UNL1        0.1895
     11 C          19.4889   71.0470   -3.3368 C.3     1  UNL1        0.1764
     12 C          18.0086   70.7137   -5.1279 C.3     1  UNL1        0.2383
     13 H          16.9314   69.4957   -2.0837 H       1  UNL1        0.2105
     14 H          17.2188   67.7608   -3.9404 H       1  UNL1        0.2106
     15 O          16.1265   69.8848   -7.0636 O.2     1  UNL1       -0.2464
     16 O          19.1459   70.4386  -10.5018 O.2     1  UNL1       -0.2670
     17 N          18.2763   70.6320   -6.5359 N.ar    1  UNL1       -0.2551
     18 N          17.6324   70.1604   -8.7740 N.ar    1  UNL1       -0.2743
     19 C          17.2613   70.2033   -7.4237 C.ar    1  UNL1        0.3323
     20 C          19.5310   70.9756   -7.0245 C.ar    1  UNL1        0.0869
     21 C          19.8698   70.9298   -8.3144 C.ar    1  UNL1        0.0795
     22 C          18.8674   70.4917   -9.3077 C.ar    1  UNL1        0.2626
     23 H          16.9431   69.8631   -9.4110 H       1  UNL1        0.1734
     24 O          22.5556   70.8345   -1.1157 O.3     1  UNL1       -0.2703
     25 P          21.7986   71.3957    0.1980 P.3     1  UNL1        0.2208
     26 O          21.3650   70.0461    0.9797 O.co2   1  UNL1       -0.4371
     27 O          20.6622   72.3308   -0.0985 O.2     1  UNL1       -0.5170
     28 O          22.9707   72.0328    1.1050 O.3     1  UNL1       -0.2858
     29 O          24.7064   71.4053    2.5893 O.3     1  UNL1       -0.3226
     30 O          22.6524   74.2017    4.8319 O.3     1  UNL1       -0.3794
     31 O          21.2037   72.2229    3.2445 O.3     1  UNL1       -0.3775
     32 O          25.1900   74.8999    3.5971 O.3     1  UNL1       -0.3792
     33 C          23.1580   73.6059    3.6371 C.3     1  UNL1        0.1718
     34 C          22.6034   72.1880    3.4981 C.3     1  UNL1        0.1968
     35 C          24.6848   73.5731    3.7344 C.3     1  UNL1        0.1723
     36 C          23.2972   71.4383    2.3599 C.3     1  UNL1        0.2706
     37 C          25.2943   72.7033    2.6388 C.3     1  UNL1        0.1830
     38 H          21.6836   74.2333    4.7927 H       1  UNL1        0.2105
     39 H          20.7571   72.6974    3.9627 H       1  UNL1        0.2106
     40 H          24.8096   75.4639    4.2886 H       1  UNL1        0.2106
     41 O          27.0425   71.1410    2.5706 O.co2   1  UNL1       -0.5466
     42 O          27.5207   73.2005    3.4244 O.co2   1  UNL1       -0.5466
     43 C          26.7299   72.4104    2.9311 C.2     1  UNL1        0.0799
@<TRIPOS>UNITY_ATOM_ATTR
2 1
charge -1
26 1
charge -1
41 1
charge -1
@<TRIPOS>BOND
     1     1     4    1
     2     1    24    1
     3     1     2    1
     4     1     3    2
     5    25    28    1
     6    25    24    1
     7    25    26    1
     8    25    27    2
     9     6    11    1
    10     6    12    1
    11    29    36    1
    12    29    37    1
    13     7     9    1
    14     7    13    1
    15     8    10    1
    16     8    14    1
    17     4     5    1
    18    28    36    1
    19    30    33    1
    20    30    38    1
    21    31    34    1
    22    31    39    1
    23    32    35    1
    24    32    40    1
    25    41    43   ar
    26    15    19    2
    27    42    43   ar
    28    16    22    2
    29    17    12    1
    30    17    19   ar
    31    17    20   ar
    32    18    19   ar
    33    18    22   ar
    34    18    23    1
    35     9    10    1
    36     9    11    1
    37    10    12    1
    38    11     5    1
    39    33    34    1
    40    33    35    1
    41    34    36    1
    42    35    37    1
    43    37    43    1
    44    20    21   ar
    45    21    22   ar
@<TRIPOS>MOLECULE
*****
 43 45 0 0 0
SMALL
GASTEIGER

@<TRIPOS>ATOM
      1 P          21.9750   72.4342   -6.0104 P.3     1  UNL1        0.2189
      2 O          21.2340   73.8113   -5.5943 O.co2   1  UNL1       -0.4371
      3 O          23.1534   72.5999   -6.9246 O.2     1  UNL1       -0.5170
      4 O          20.7769   71.5022   -6.5705 O.3     1  UNL1       -0.3112
      5 C          20.1234   71.8870   -7.7661 C.3     1  UNL1        0.1811
      6 O          18.9068   69.8709   -7.2838 O.3     1  UNL1       -0.3308
      7 O          18.0109   69.9481  -10.1444 O.3     1  UNL1       -0.3794
      8 O          15.8420   70.9290   -8.8141 O.3     1  UNL1       -0.3779
      9 C          18.2342   71.0284   -9.2379 C.3     1  UNL1        0.1713
     10 C          17.1131   71.1013   -8.2230 C.3     1  UNL1        0.1895
     11 C          19.4302   70.6706   -8.3662 C.3     1  UNL1        0.1764
     12 C          17.4740   69.9723   -7.2728 C.3     1  UNL1        0.2383
     13 H          17.2512   70.1538  -10.7121 H       1  UNL1        0.2105
     14 H          15.6589   71.6731   -9.4097 H       1  UNL1        0.2106
     15 O          16.1517   68.0802   -5.6455 O.2     1  UNL1       -0.2464
     16 O          15.8318   71.0507   -2.1358 O.2     1  UNL1       -0.2670
     17 N          17.0341   70.2248   -5.9298 N.ar    1  UNL1       -0.2551
     18 N          15.9927   69.5618   -3.8994 N.ar    1  UNL1       -0.2743
     19 C          16.3791   69.2059   -5.1983 C.ar    1  UNL1        0.3323
     20 C          17.2538   71.4684   -5.3502 C.ar    1  UNL1        0.0869
     21 C          16.8799   71.7928   -4.1109 C.ar    1  UNL1        0.0795
     22 C          16.1886   70.7854   -3.2798 C.ar    1  UNL1        0.2626
     23 H          15.5331   68.8695   -3.3714 H       1  UNL1        0.1734
     24 O          22.3206   71.7620   -4.5815 O.3     1  UNL1       -0.2703
     25 P          23.4521   72.1229   -3.4846 P.3     1  UNL1        0.2208
     26 O          24.4733   73.0733   -4.3057 O.co2   1  UNL1       -0.4371
     27 O          24.0973   70.9258   -2.8486 O.2     1  UNL1       -0.5170
     28 O          22.7155   73.1160   -2.4484 O.3     1  UNL1       -0.2858
     29 O          21.6055   71.6899   -0.9177 O.3     1  UNL1       -0.3226
     30 O          20.8417   75.4148    0.6980 O.3     1  UNL1       -0.3794
     31 O          20.6770   74.9902   -2.1877 O.3     1  UNL1       -0.3775
     32 O          22.8295   73.6766    1.9138 O.3     1  UNL1       -0.3792
     33 C          21.5950   74.4320   -0.0124 C.3     1  UNL1        0.1718
     34 C          20.7951   73.9507   -1.2232 C.3     1  UNL1        0.1968
     35 C          21.8703   73.2669    0.9409 C.3     1  UNL1        0.1723
     36 C          21.4646   72.7401   -1.8752 C.3     1  UNL1        0.2706
     37 C          22.4195   72.0544    0.1948 C.3     1  UNL1        0.1830
     38 H          20.6548   76.1650    0.1119 H       1  UNL1        0.2105
     39 H          20.2532   75.7616   -1.7807 H       1  UNL1        0.2106
     40 H          22.4922   74.4478    2.3957 H       1  UNL1        0.2106
     41 O          23.5006   70.7363    1.8058 O.co2   1  UNL1       -0.5466
     42 O          21.4520   70.0344    1.0919 O.co2   1  UNL1       -0.5466
     43 C          22.3741   70.8354    1.0574 C.2     1  UNL1        0.0799
@<TRIPOS>UNITY_ATOM_ATTR
2 1
charge -1
26 1
charge -1
41 1
charge -1
@<TRIPOS>BOND
     1     1     4    1
     2     1    24    1
     3     1     2    1
     4     1     3    2
     5    25    28    1
     6    25    24    1
     7    25    26    1
     8    25    27    2
     9     6    11    1
    10     6    12    1
    11    29    36    1
    12    29    37    1
    13     7     9    1
    14     7    13    1
    15     8    10    1
    16     8    14    1
    17     4     5    1
    18    28    36    1
    19    30    33    1
    20    30    38    1
    21    31    34    1
    22    31    39    1
    23    32    35    1
    24    32    40    1
    25    41    43   ar
    26    15    19    2
    27    42    43   ar
    28    16    22    2
    29    17    12    1
    30    17    19   ar
    31    17    20   ar
    32    18    19   ar
    33    18    22   ar
    34    18    23    1
    35     9    10    1
    36     9    11    1
    37    10    12    1
    38    11     5    1
    39    33    34    1
    40    33    35    1
    41    34    36    1
    42    35    37    1
    43    37    43    1
    44    20    21   ar
    45    21    22   ar
@<TRIPOS>MOLECULE
*****
 43 45 0 0 0
SMALL
GASTEIGER

@<TRIPOS>ATOM
      1 P          22.9128   71.6401   -2.5332 P.3     1  UNL1        0.2189
      2 O          23.1424   73.1689   -2.0546 O.co2   1  UNL1       -0.4371
      3 O          24.1561   70.9163   -2.9600 O.2     1  UNL1       -0.5170
      4 O          21.7475   71.7535   -3.6500 O.3     1  UNL1       -0.3112
      5 C          20.8516   70.6682   -3.8049 C.3     1  UNL1        0.1811
      6 O          18.9521   71.7704   -4.7820 O.3     1  UNL1       -0.3308
      7 O          17.3513   70.6027   -2.5314 O.3     1  UNL1       -0.3794
      8 O          16.7655   68.9345   -4.6075 O.3     1  UNL1       -0.3779
      9 C          18.4509   70.0382   -3.2461 C.3     1  UNL1        0.1713
     10 C          18.0099   69.6020   -4.6272 C.3     1  UNL1        0.1895
     11 C          19.4302   71.1600   -3.5638 C.3     1  UNL1        0.1764
     12 C          17.9522   70.9247   -5.3723 C.3     1  UNL1        0.2383
     13 H          16.7119   69.9048   -2.3173 H       1  UNL1        0.2105
     14 H          16.8546   68.0987   -4.1223 H       1  UNL1        0.2106
     15 O          15.9977   70.4059   -7.3439 O.2     1  UNL1       -0.2464
     16 O          19.1417   70.3794  -10.7141 O.2     1  UNL1       -0.2670
     17 N          18.2324   70.7776   -6.7725 N.ar    1  UNL1       -0.2551
     18 N          17.5656   70.3922   -9.0204 N.ar    1  UNL1       -0.2743
     19 C          17.1781   70.5181   -7.6799 C.ar    1  UNL1        0.3323
     20 C          19.5380   70.8920   -7.2344 C.ar    1  UNL1        0.0869
     21 C          19.8918   70.7696   -8.5152 C.ar    1  UNL1        0.0795
     22 C          18.8506   70.4971   -9.5277 C.ar    1  UNL1        0.2626
     23 H          16.8492   70.2093   -9.6706 H       1  UNL1        0.1734
     24 O          22.1462   70.9770   -1.2741 O.3     1  UNL1       -0.2703
     25 P          22.4099   71.1037    0.3159 P.3     1  UNL1        0.2208
     26 O          24.0250   71.1108    0.4235 O.co2   1  UNL1       -0.4371
     27 O          21.7400   70.0409    1.1378 O.2     1  UNL1       -0.5170
     28 O          21.9707   72.6116    0.6846 O.3     1  UNL1       -0.2858
     29 O          23.1462   74.4446    1.6160 O.3     1  UNL1       -0.3226
     30 O          19.4119   74.8835    3.3278 O.3     1  UNL1       -0.3794
     31 O          20.6325   72.2396    3.0944 O.3     1  UNL1       -0.3775
     32 O          20.2333   76.6265    1.1511 O.3     1  UNL1       -0.3792
     33 C          20.3443   74.5175    2.3106 C.3     1  UNL1        0.1718
     34 C          21.3117   73.4672    2.8571 C.3     1  UNL1        0.1968
     35 C          21.1066   75.7768    1.8925 C.3     1  UNL1        0.1723
     36 C          22.4605   73.2197    1.8784 C.3     1  UNL1        0.2706
     37 C          22.3112   75.4351    1.0204 C.3     1  UNL1        0.1830
     38 H          18.9157   74.0988    3.6093 H       1  UNL1        0.2105
     39 H          19.9020   72.3893    3.7144 H       1  UNL1        0.2106
     40 H          19.4622   76.8514    1.6949 H       1  UNL1        0.2106
     41 O          23.3302   76.9960   -0.4033 O.co2   1  UNL1       -0.5466
     42 O          23.7983   77.1575    1.8224 O.co2   1  UNL1       -0.5466
     43 C          23.2243   76.6108    0.8926 C.2     1  UNL1        0.0799
@<TRIPOS>UNITY_ATOM_ATTR
2 1
charge -1
26 1
charge -1
41 1
charge -1
@<TRIPOS>BOND
     1     1     4    1
     2     1    24    1
     3     1     2    1
     4     1     3    2
     5    25    28    1
     6    25    24    1
     7    25    26    1
     8    25    27    2
     9     6    11    1
    10     6    12    1
    11    29    36    1
    12    29    37    1
    13     7     9    1
    14     7    13    1
    15     8    10    1
    16     8    14    1
    17     4     5    1
    18    28    36    1
    19    30    33    1
    20    30    38    1
    21    31    34    1
    22    31    39    1
    23    32    35    1
    24    32    40    1
    25    41    43   ar
    26    15    19    2
    27    42    43   ar
    28    16    22    2
    29    17    12    1
    30    17    19   ar
    31    17    20   ar
    32    18    19   ar
    33    18    22   ar
    34    18    23    1
    35     9    10    1
    36     9    11    1
    37    10    12    1
    38    11     5    1
    39    33    34    1
    40    33    35    1
    41    34    36    1
    42    35    37    1
    43    37    43    1
    44    20    21   ar
    45    21    22   ar
@<TRIPOS>MOLECULE
*****
 43 45 0 0 0
SMALL
GASTEIGER

@<TRIPOS>ATOM
      1 P          22.5183   72.3371   -3.1965 P.3     1  UNL1        0.2189
      2 O          21.7505   73.3365   -4.2116 O.co2   1  UNL1       -0.4371
      3 O          23.8058   71.7701   -3.7186 O.2     1  UNL1       -0.5170
      4 O          21.3878   71.2539   -2.7885 O.3     1  UNL1       -0.3112
      5 C          20.6147   70.6634   -3.8171 C.3     1  UNL1        0.1811
      6 O          18.6925   71.6551   -4.8657 O.3     1  UNL1       -0.3308
      7 O          17.0749   70.3655   -2.6951 O.3     1  UNL1       -0.3794
      8 O          16.6833   68.6864   -4.8077 O.3     1  UNL1       -0.3779
      9 C          18.2370   69.8786   -3.3666 C.3     1  UNL1        0.1713
     10 C          17.8829   69.4306   -4.7688 C.3     1  UNL1        0.1895
     11 C          19.1563   71.0627   -3.6331 C.3     1  UNL1        0.1764
     12 C          17.7736   70.7550   -5.5049 C.3     1  UNL1        0.2383
     13 H          16.4723   69.6267   -2.5141 H       1  UNL1        0.2105
     14 H          16.8043   67.8526   -4.3259 H       1  UNL1        0.2106
     15 O          15.9343   70.1698   -7.5667 O.2     1  UNL1       -0.2464
     16 O          19.2195   70.3409  -10.7950 O.2     1  UNL1       -0.2670
     17 N          18.1213   70.6408   -6.8930 N.ar    1  UNL1       -0.2551
     18 N          17.5724   70.2545   -9.1725 N.ar    1  UNL1       -0.2743
     19 C          17.1214   70.3433   -7.8490 C.ar    1  UNL1        0.3323
     20 C          19.4386   70.8242   -7.2955 C.ar    1  UNL1        0.0869
     21 C          19.8533   70.7366   -8.5608 C.ar    1  UNL1        0.0795
     22 C          18.8717   70.4282   -9.6213 C.ar    1  UNL1        0.2626
     23 H          16.8948   70.0463   -9.8557 H       1  UNL1        0.1734
     24 O          22.6693   73.2273   -1.8557 O.3     1  UNL1       -0.2703
     25 P          23.6028   74.5066   -1.5305 P.3     1  UNL1        0.2208
     26 O          22.5429   75.6167   -1.0162 O.co2   1  UNL1       -0.4371
     27 O          24.4572   74.9538   -2.6811 O.2     1  UNL1       -0.5170
     28 O          24.4265   74.0867   -0.2085 O.3     1  UNL1       -0.2858
     29 O          22.7566   73.3023    1.2766 O.3     1  UNL1       -0.3226
     30 O          26.2136   72.4423    3.3688 O.3     1  UNL1       -0.3794
     31 O          25.9335   74.9813    1.9513 O.3     1  UNL1       -0.3775
     32 O          24.7483   70.3155    2.0344 O.3     1  UNL1       -0.3792
     33 C          25.4057   72.6271    2.2064 C.3     1  UNL1        0.1718
     34 C          24.8729   74.0598    2.1760 C.3     1  UNL1        0.1968
     35 C          24.2471   71.6295    2.2724 C.3     1  UNL1        0.1723
     36 C          23.8237   74.2300    1.0764 C.3     1  UNL1        0.2706
     37 C          23.1823   71.9425    1.2251 C.3     1  UNL1        0.1830
     38 H          26.9567   73.0658    3.3488 H       1  UNL1        0.2105
     39 H          26.6030   74.8786    2.6453 H       1  UNL1        0.2106
     40 H          25.4272   70.1040    2.6942 H       1  UNL1        0.2106
     41 O          21.0633   71.9419    2.2308 O.co2   1  UNL1       -0.5466
     42 O          21.6942   70.0454    1.1334 O.co2   1  UNL1       -0.5466
     43 C          21.9244   71.1864    1.5052 C.2     1  UNL1        0.0799
@<TRIPOS>UNITY_ATOM_ATTR
2 1
charge -1
26 1
charge -1
41 1
charge -1
@<TRIPOS>BOND
     1     1     4    1
     2     1    24    1
     3     1     2    1
     4     1     3    2
     5    25    28    1
     6    25    24    1
     7    25    26    1
     8    25    27    2
     9     6    11    1
    10     6    12    1
    11    29    36    1
    12    29    37    1
    13     7     9    1
    14     7    13    1
    15     8    10    1
    16     8    14    1
    17     4     5    1
    18    28    36    1
    19    30    33    1
    20    30    38    1
    21    31    34    1
    22    31    39    1
    23    32    35    1
    24    32    40    1
    25    41    43   ar
    26    15    19    2
    27    42    43   ar
    28    16    22    2
    29    17    12    1
    30    17    19   ar
    31    17    20   ar
    32    18    19   ar
    33    18    22   ar
    34    18    23    1
    35     9    10    1
    36     9    11    1
    37    10    12    1
    38    11     5    1
    39    33    34    1
    40    33    35    1
    41    34    36    1
    42    35    37    1
    43    37    43    1
    44    20    21   ar
    45    21    22   ar
@<TRIPOS>MOLECULE
*****
 43 45 0 0 0
SMALL
GASTEIGER

@<TRIPOS>ATOM
      1 P          21.5174   72.6304   -4.7029 P.3     1  UNL1        0.2189
      2 O          21.4682   74.2387   -4.5304 O.co2   1  UNL1       -0.4371
      3 O          22.3882   72.1396   -5.8222 O.2     1  UNL1       -0.5170
      4 O          19.9597   72.2005   -4.7843 O.3     1  UNL1       -0.3112
      5 C          19.4288   71.3849   -3.7560 C.3     1  UNL1        0.1811
      6 O          17.5503   71.7611   -5.2077 O.3     1  UNL1       -0.3308
      7 O          15.9414   70.1862   -3.2271 O.3     1  UNL1       -0.3794
      8 O          16.4077   68.3628   -5.2004 O.3     1  UNL1       -0.3779
      9 C          17.2957   70.0032   -3.6406 C.3     1  UNL1        0.1713
     10 C          17.3430   69.4075   -5.0317 C.3     1  UNL1        0.1895
     11 C          17.9092   71.3790   -3.8622 C.3     1  UNL1        0.1764
     12 C          17.0353   70.6140   -5.9021 C.3     1  UNL1        0.2383
     13 H          15.5283   69.3207   -3.0794 H       1  UNL1        0.2105
     14 H          16.6473   67.6184   -4.6255 H       1  UNL1        0.2106
     15 O          15.6362   70.6837   -8.3545 O.2     1  UNL1       -0.2464
     16 O          19.5265   70.2891  -10.7946 O.2     1  UNL1       -0.2670
     17 N          17.6577   70.5314   -7.1931 N.ar    1  UNL1       -0.2551
     18 N          17.5750   70.4861   -9.5674 N.ar    1  UNL1       -0.2743
     19 C          16.8639   70.5755   -8.3635 C.ar    1  UNL1        0.3323
     20 C          19.0385   70.4099   -7.2909 C.ar    1  UNL1        0.0869
     21 C          19.7022   70.3259   -8.4455 C.ar    1  UNL1        0.0795
     22 C          18.9472   70.3636   -9.7152 C.ar    1  UNL1        0.2626
     23 H          17.0437   70.5126  -10.3958 H       1  UNL1        0.1734
     24 O          21.9587   72.1211   -3.2336 O.3     1  UNL1       -0.2703
     25 P          23.4156   72.0111   -2.5415 P.3     1  UNL1        0.2208
     26 O          24.1284   73.4038   -2.9569 O.co2   1  UNL1       -0.4371
     27 O          24.1883   70.7824   -2.9251 O.2     1  UNL1       -0.5170
     28 O          23.1296   72.1557   -0.9605 O.3     1  UNL1       -0.2858
     29 O          24.3767   71.0352    0.7124 O.3     1  UNL1       -0.3226
     30 O          20.8247   71.7966    2.6801 O.3     1  UNL1       -0.3794
     31 O          20.8140   70.8814   -0.0942 O.3     1  UNL1       -0.3775
     32 O          23.1859   73.3895    3.2622 O.3     1  UNL1       -0.3792
     33 C          21.8782   72.0454    1.7494 C.3     1  UNL1        0.1718
     34 C          21.9602   70.8922    0.7489 C.3     1  UNL1        0.1968
     35 C          23.1860   72.1621    2.5354 C.3     1  UNL1        0.1723
     36 C          23.2149   71.0080   -0.1177 C.3     1  UNL1        0.2706
     37 C          24.3972   72.1449    1.6074 C.3     1  UNL1        0.1830
     38 H          19.9834   71.7186    2.2032 H       1  UNL1        0.2105
     39 H          20.0142   70.8084    0.4491 H       1  UNL1        0.2106
     40 H          22.4197   73.4132    3.8566 H       1  UNL1        0.2106
     41 O          26.0634   70.6381    2.2820 O.co2   1  UNL1       -0.5466
     42 O          26.2452   72.7882    3.0190 O.co2   1  UNL1       -0.5466
     43 C          25.6561   71.9277    2.3823 C.2     1  UNL1        0.0799
@<TRIPOS>UNITY_ATOM_ATTR
2 1
charge -1
26 1
charge -1
41 1
charge -1
@<TRIPOS>BOND
     1     1     4    1
     2     1    24    1
     3     1     2    1
     4     1     3    2
     5    25    28    1
     6    25    24    1
     7    25    26    1
     8    25    27    2
     9     6    11    1
    10     6    12    1
    11    29    36    1
    12    29    37    1
    13     7     9    1
    14     7    13    1
    15     8    10    1
    16     8    14    1
    17     4     5    1
    18    28    36    1
    19    30    33    1
    20    30    38    1
    21    31    34    1
    22    31    39    1
    23    32    35    1
    24    32    40    1
    25    41    43   ar
    26    15    19    2
    27    42    43   ar
    28    16    22    2
    29    17    12    1
    30    17    19   ar
    31    17    20   ar
    32    18    19   ar
    33    18    22   ar
    34    18    23    1
    35     9    10    1
    36     9    11    1
    37    10    12    1
    38    11     5    1
    39    33    34    1
    40    33    35    1
    41    34    36    1
    42    35    37    1
    43    37    43    1
    44    20    21   ar
    45    21    22   ar
@<TRIPOS>MOLECULE
*****
 43 45 0 0 0
SMALL
GASTEIGER

@<TRIPOS>ATOM
      1 P          22.8182   71.4644   -2.2355 P.3     1  UNL1        0.2189
      2 O          22.4123   72.8059   -3.0446 O.co2   1  UNL1       -0.4371
      3 O          24.0944   70.8153   -2.6847 O.2     1  UNL1       -0.5170
      4 O          21.4919   70.5418   -2.3229 O.3     1  UNL1       -0.3112
      5 C          20.7906   70.4806   -3.5513 C.3     1  UNL1        0.1811
      6 O          18.8792   71.5641   -4.5261 O.3     1  UNL1       -0.3308
      7 O          17.2681   70.2605   -2.3590 O.3     1  UNL1       -0.3794
      8 O          16.7770   68.6599   -4.5115 O.3     1  UNL1       -0.3779
      9 C          18.3991   69.7579   -3.0709 C.3     1  UNL1        0.1713
     10 C          18.0006   69.3643   -4.4775 C.3     1  UNL1        0.1895
     11 C          19.3501   70.9200   -3.3225 C.3     1  UNL1        0.1764
     12 C          17.9181   70.7134   -5.1710 C.3     1  UNL1        0.2383
     13 H          16.6460   69.5359   -2.1866 H       1  UNL1        0.2105
     14 H          16.8814   67.8084   -4.0576 H       1  UNL1        0.2106
     15 O          16.0709   69.9854   -7.1796 O.2     1  UNL1       -0.2464
     16 O          19.2325   70.4293  -10.5039 O.2     1  UNL1       -0.2670
     17 N          18.2318   70.6307   -6.5695 N.ar    1  UNL1       -0.2551
     18 N          17.6476   70.2062   -8.8332 N.ar    1  UNL1       -0.2743
     19 C          17.2309   70.2552   -7.4964 C.ar    1  UNL1        0.3323
     20 C          19.5172   70.9212   -7.0103 C.ar    1  UNL1        0.0869
     21 C          19.8993   70.8702   -8.2878 C.ar    1  UNL1        0.0795
     22 C          18.9143   70.4855   -9.3199 C.ar    1  UNL1        0.2626
     23 H          16.9687   69.9452   -9.4968 H       1  UNL1        0.1734
     24 O          22.8183   71.9555   -0.6955 O.3     1  UNL1       -0.2703
     25 P          22.5922   71.1364    0.6799 P.3     1  UNL1        0.2208
     26 O          23.9135   70.2064    0.7780 O.co2   1  UNL1       -0.4371
     27 O          21.2972   70.3791    0.7398 O.2     1  UNL1       -0.5170
     28 O          22.7799   72.2349    1.8462 O.3     1  UNL1       -0.2858
     29 O          22.0418   72.8335    4.0155 O.3     1  UNL1       -0.3226
     30 O          21.1722   76.2487    1.8595 O.3     1  UNL1       -0.3794
     31 O          20.6332   73.6081    0.7319 O.3     1  UNL1       -0.3775
     32 O          23.4694   76.1925    3.6401 O.3     1  UNL1       -0.3792
     33 C          21.9041   75.0693    2.1933 C.3     1  UNL1        0.1718
     34 C          20.9866   73.8508    2.0886 C.3     1  UNL1        0.1968
     35 C          22.4226   75.2238    3.6248 C.3     1  UNL1        0.1723
     36 C          21.6659   72.6041    2.6570 C.3     1  UNL1        0.2706
     37 C          22.9700   73.9056    4.1643 C.3     1  UNL1        0.1830
     38 H          20.8328   76.1733    0.9537 H       1  UNL1        0.2105
     39 H          20.2019   74.3953    0.3648 H       1  UNL1        0.2106
     40 H          23.1342   77.0363    3.2988 H       1  UNL1        0.2106
     41 O          22.1735   73.3151    6.2900 O.co2   1  UNL1       -0.5466
     42 O          24.0877   74.5509    6.2029 O.co2   1  UNL1       -0.5466
     43 C          23.1645   73.9779    5.6439 C.2     1  UNL1        0.0799
@<TRIPOS>UNITY_ATOM_ATTR
2 1
charge -1
26 1
charge -1
41 1
charge -1
@<TRIPOS>BOND
     1     1     4    1
     2     1    24    1
     3     1     2    1
     4     1     3    2
     5    25    28    1
     6    25    24    1
     7    25    26    1
     8    25    27    2
     9     6    11    1
    10     6    12    1
    11    29    36    1
    12    29    37    1
    13     7     9    1
    14     7    13    1
    15     8    10    1
    16     8    14    1
    17     4     5    1
    18    28    36    1
    19    30    33    1
    20    30    38    1
    21    31    34    1
    22    31    39    1
    23    32    35    1
    24    32    40    1
    25    41    43   ar
    26    15    19    2
    27    42    43   ar
    28    16    22    2
    29    17    12    1
    30    17    19   ar
    31    17    20   ar
    32    18    19   ar
    33    18    22   ar
    34    18    23    1
    35     9    10    1
    36     9    11    1
    37    10    12    1
    38    11     5    1
    39    33    34    1
    40    33    35    1
    41    34    36    1
    42    35    37    1
    43    37    43    1
    44    20    21   ar
    45    21    22   ar
@<TRIPOS>MOLECULE
*****
 43 45 0 0 0
SMALL
GASTEIGER

@<TRIPOS>ATOM
      1 P          20.4172   72.3989   -1.5643 P.3     1  UNL1        0.2189
      2 O          19.6654   72.7171   -0.1671 O.co2   1  UNL1       -0.4371
      3 O          20.6102   73.5842   -2.4642 O.2     1  UNL1       -0.5170
      4 O          19.5694   71.1716   -2.1910 O.3     1  UNL1       -0.3112
      5 C          19.2581   71.2005   -3.5719 C.3     1  UNL1        0.1811
      6 O          17.4835   71.7784   -5.0867 O.3     1  UNL1       -0.3308
      7 O          15.6565   70.3198   -3.2089 O.3     1  UNL1       -0.3794
      8 O          16.0344   68.5011   -5.2053 O.3     1  UNL1       -0.3779
      9 C          17.0042   70.0204   -3.5732 C.3     1  UNL1        0.1713
     10 C          17.0539   69.4510   -4.9752 C.3     1  UNL1        0.1895
     11 C          17.7500   71.3376   -3.7377 C.3     1  UNL1        0.1764
     12 C          16.8944   70.6982   -5.8280 C.3     1  UNL1        0.2383
     13 H          15.1600   69.4935   -3.0982 H       1  UNL1        0.2105
     14 H          16.1808   67.7263   -4.6394 H       1  UNL1        0.2106
     15 O          15.5721   70.6343   -8.3227 O.2     1  UNL1       -0.2464
     16 O          19.5468   70.2585  -10.6258 O.2     1  UNL1       -0.2670
     17 N          17.5593   70.5842   -7.0952 N.ar    1  UNL1       -0.2551
     18 N          17.5529   70.4461   -9.4673 N.ar    1  UNL1       -0.2743
     19 C          16.8019   70.5610   -8.2901 C.ar    1  UNL1        0.3323
     20 C          18.9453   70.4987   -7.1460 C.ar    1  UNL1        0.0869
     21 C          19.6472   70.3897   -8.2757 C.ar    1  UNL1        0.0795
     22 C          18.9319   70.3574   -9.5683 C.ar    1  UNL1        0.2626
     23 H          17.0475   70.4258  -10.3120 H       1  UNL1        0.1734
     24 O          21.7872   71.6870   -1.0854 O.3     1  UNL1       -0.2703
     25 P          22.3209   71.2967    0.3899 P.3     1  UNL1        0.2208
     26 O          23.8946   71.0043    0.1484 O.co2   1  UNL1       -0.4371
     27 O          21.5738   70.1659    1.0358 O.2     1  UNL1       -0.5170
     28 O          22.2863   72.6811    1.2173 O.3     1  UNL1       -0.2858
     29 O          23.4869   74.5176    2.1088 O.3     1  UNL1       -0.3226
     30 O          22.5101   72.4129    5.5269 O.3     1  UNL1       -0.3794
     31 O          23.4156   71.0081    3.1309 O.3     1  UNL1       -0.3775
     32 O          21.0695   74.8453    4.8493 O.3     1  UNL1       -0.3792
     33 C          22.3252   72.8955    4.1962 C.3     1  UNL1        0.1718
     34 C          23.4786   72.4178    3.3137 C.3     1  UNL1        0.1968
     35 C          22.2925   74.4246    4.2479 C.3     1  UNL1        0.1723
     36 C          23.4393   73.0997    1.9454 C.3     1  UNL1        0.2706
     37 C          22.3830   75.0313    2.8507 C.3     1  UNL1        0.1830
     38 H          22.5341   71.4431    5.5190 H       1  UNL1        0.2105
     39 H          23.4398   70.5690    3.9952 H       1  UNL1        0.2106
     40 H          20.9994   74.4658    5.7392 H       1  UNL1        0.2106
     41 O          23.2123   76.9343    1.7586 O.co2   1  UNL1       -0.5466
     42 O          22.4739   77.2025    3.8991 O.co2   1  UNL1       -0.5466
     43 C          22.6805   76.4936    2.9256 C.2     1  UNL1        0.0799
@<TRIPOS>UNITY_ATOM_ATTR
2 1
charge -1
26 1
charge -1
41 1
charge -1
@<TRIPOS>BOND
     1     1     4    1
     2     1    24    1
     3     1     2    1
     4     1     3    2
     5    25    28    1
     6    25    24    1
     7    25    26    1
     8    25    27    2
     9     6    11    1
    10     6    12    1
    11    29    36    1
    12    29    37    1
    13     7     9    1
    14     7    13    1
    15     8    10    1
    16     8    14    1
    17     4     5    1
    18    28    36    1
    19    30    33    1
    20    30    38    1
    21    31    34    1
    22    31    39    1
    23    32    35    1
    24    32    40    1
    25    41    43   ar
    26    15    19    2
    27    42    43   ar
    28    16    22    2
    29    17    12    1
    30    17    19   ar
    31    17    20   ar
    32    18    19   ar
    33    18    22   ar
    34    18    23    1
    35     9    10    1
    36     9    11    1
    37    10    12    1
    38    11     5    1
    39    33    34    1
    40    33    35    1
    41    34    36    1
    42    35    37    1
    43    37    43    1
    44    20    21   ar
    45    21    22   ar
@<TRIPOS>MOLECULE
*****
 43 45 0 0 0
SMALL
GASTEIGER

@<TRIPOS>ATOM
      1 P          23.1244   73.4459   -2.1174 P.3     1  UNL1        0.2189
      2 O          23.5346   71.9888   -2.6898 O.co2   1  UNL1       -0.4371
      3 O          23.9322   74.5892   -2.6578 O.2     1  UNL1       -0.5170
      4 O          23.1616   73.2567   -0.5109 O.3     1  UNL1       -0.3112
      5 C          22.0719   73.7411    0.2523 C.3     1  UNL1        0.1811
      6 O          22.6665   71.7233    1.4154 O.3     1  UNL1       -0.3308
      7 O          20.2000   72.1664    3.0621 O.3     1  UNL1       -0.3794
      8 O          22.1836   73.0547    4.7090 O.3     1  UNL1       -0.3779
      9 C          21.1134   73.1245    2.5268 C.3     1  UNL1        0.1713
     10 C          22.4056   73.1142    3.3156 C.3     1  UNL1        0.1895
     11 C          21.5693   72.6273    1.1618 C.3     1  UNL1        0.1764
     12 C          23.0926   71.8699    2.7793 C.3     1  UNL1        0.2383
     13 H          19.8948   72.4624    3.9344 H       1  UNL1        0.2105
     14 H          21.7446   73.8694    5.0015 H       1  UNL1        0.2106
     15 O          24.8629   69.7020    2.4014 O.2     1  UNL1       -0.2464
     16 O          28.5651   72.3965    2.9274 O.2     1  UNL1       -0.2670
     17 N          24.5238   71.9768    2.8124 N.ar    1  UNL1       -0.2551
     18 N          26.7051   71.0459    2.6648 N.ar    1  UNL1       -0.2743
     19 C          25.3224   70.8262    2.6107 C.ar    1  UNL1        0.3323
     20 C          25.1222   73.2100    3.0407 C.ar    1  UNL1        0.0869
     21 C          26.4416   73.4037    3.0893 C.ar    1  UNL1        0.0795
     22 C          27.3468   72.2530    2.8895 C.ar    1  UNL1        0.2626
     23 H          27.2816   70.2594    2.5293 H       1  UNL1        0.1734
     24 O          21.5420   73.5290   -2.4370 O.3     1  UNL1       -0.2703
     25 P          20.4444   72.3659   -2.6734 P.3     1  UNL1        0.2208
     26 O          19.0750   73.0326   -2.1251 O.co2   1  UNL1       -0.4371
     27 O          20.7917   71.0524   -2.0346 O.2     1  UNL1       -0.5170
     28 O          20.2538   72.3022   -4.2741 O.3     1  UNL1       -0.2858
     29 O          19.0922   70.4519   -5.1885 O.3     1  UNL1       -0.3226
     30 O          20.9065   72.0454   -8.5406 O.3     1  UNL1       -0.3794
     31 O          22.3695   71.8426   -6.0201 O.3     1  UNL1       -0.3775
     32 O          18.0641   72.4528   -8.0870 O.3     1  UNL1       -0.3792
     33 C          20.2926   72.0763   -7.2521 C.3     1  UNL1        0.1718
     34 C          21.1104   71.2310   -6.2752 C.3     1  UNL1        0.1968
     35 C          18.8770   71.5112   -7.3891 C.3     1  UNL1        0.1723
     36 C          20.3663   71.0518   -4.9512 C.3     1  UNL1        0.2706
     37 C          18.2499   71.2426   -6.0242 C.3     1  UNL1        0.1830
     38 H          21.8075   72.4000   -8.4782 H       1  UNL1        0.2105
     39 H          22.8470   71.9596   -6.8560 H       1  UNL1        0.2106
     40 H          18.4524   72.6326   -8.9575 H       1  UNL1        0.2106
     41 O          17.2852   69.1158   -5.8059 O.co2   1  UNL1       -0.5466
     42 O          15.9337   70.8011   -6.5356 O.co2   1  UNL1       -0.5466
     43 C          17.0246   70.3986   -6.1602 C.2     1  UNL1        0.0799
@<TRIPOS>UNITY_ATOM_ATTR
2 1
charge -1
26 1
charge -1
41 1
charge -1
@<TRIPOS>BOND
     1     1     4    1
     2     1    24    1
     3     1     2    1
     4     1     3    2
     5    25    28    1
     6    25    24    1
     7    25    26    1
     8    25    27    2
     9     6    11    1
    10     6    12    1
    11    29    36    1
    12    29    37    1
    13     7     9    1
    14     7    13    1
    15     8    10    1
    16     8    14    1
    17     4     5    1
    18    28    36    1
    19    30    33    1
    20    30    38    1
    21    31    34    1
    22    31    39    1
    23    32    35    1
    24    32    40    1
    25    41    43   ar
    26    15    19    2
    27    42    43   ar
    28    16    22    2
    29    17    12    1
    30    17    19   ar
    31    17    20   ar
    32    18    19   ar
    33    18    22   ar
    34    18    23    1
    35     9    10    1
    36     9    11    1
    37    10    12    1
    38    11     5    1
    39    33    34    1
    40    33    35    1
    41    34    36    1
    42    35    37    1
    43    37    43    1
    44    20    21   ar
    45    21    22   ar
@<TRIPOS>MOLECULE
*****
 43 45 0 0 0
SMALL
GASTEIGER

@<TRIPOS>ATOM
      1 P          21.8399   71.4008   -0.5427 P.3     1  UNL1        0.2189
      2 O          23.4288   71.0992   -0.6009 O.co2   1  UNL1       -0.4371
      3 O          21.1053   70.7156    0.5721 O.2     1  UNL1       -0.5170
      4 O          21.3246   71.0592   -2.0380 O.3     1  UNL1       -0.3112
      5 C          21.6222   71.9700   -3.0802 C.3     1  UNL1        0.1811
      6 O          20.6922   70.1277   -4.3125 O.3     1  UNL1       -0.3308
      7 O          21.7077   71.5041   -6.7753 O.3     1  UNL1       -0.3794
      8 O          19.0566   72.1426   -6.7861 O.3     1  UNL1       -0.3779
      9 C          21.1674   72.0706   -5.5813 C.3     1  UNL1        0.1713
     10 C          19.6666   71.8749   -5.5408 C.3     1  UNL1        0.1895
     11 C          21.6313   71.2206   -4.4064 C.3     1  UNL1        0.1764
     12 C          19.5497   70.4159   -5.1340 C.3     1  UNL1        0.2383
     13 H          21.4248   72.0304   -7.5400 H       1  UNL1        0.2105
     14 H          19.1579   73.0838   -7.0001 H       1  UNL1        0.2106
     15 O          17.0385   69.8291   -6.2856 O.2     1  UNL1       -0.2464
     16 O          15.0366   69.4143   -2.1548 O.2     1  UNL1       -0.2670
     17 N          18.3555   70.1504   -4.3828 N.ar    1  UNL1       -0.2551
     18 N          16.0436   69.6241   -4.2272 N.ar    1  UNL1       -0.2743
     19 C          17.1451   69.8666   -5.0584 C.ar    1  UNL1        0.3323
     20 C          18.3909   70.1712   -2.9938 C.ar    1  UNL1        0.0869
     21 C          17.3327   69.9379   -2.2150 C.ar    1  UNL1        0.0795
     22 C          16.0295   69.6342   -2.8418 C.ar    1  UNL1        0.2626
     23 H          15.1893   69.4261   -4.6747 H       1  UNL1        0.1734
     24 O          21.7784   73.0154   -0.4972 O.3     1  UNL1       -0.2703
     25 P          22.7795   74.0974    0.1666 P.3     1  UNL1        0.2208
     26 O          22.0678   75.5127   -0.1663 O.co2   1  UNL1       -0.4371
     27 O          24.2004   73.9933   -0.3069 O.2     1  UNL1       -0.5170
     28 O          22.5885   73.9098    1.7574 O.3     1  UNL1       -0.2858
     29 O          24.6125   73.3268    2.8404 O.3     1  UNL1       -0.3226
     30 O          21.8814   72.9833    5.9212 O.3     1  UNL1       -0.3794
     31 O          21.2328   71.9940    3.2500 O.3     1  UNL1       -0.3775
     32 O          23.6619   75.2780    5.7987 O.3     1  UNL1       -0.3792
     33 C          22.4236   73.5187    4.7140 C.3     1  UNL1        0.1718
     34 C          22.5282   72.4117    3.6647 C.3     1  UNL1        0.1968
     35 C          23.8095   74.0863    5.0289 C.3     1  UNL1        0.1723
     36 C          23.3128   72.8892    2.4419 C.3     1  UNL1        0.2706
     37 C          24.5772   74.4214    3.7535 C.3     1  UNL1        0.1830
     38 H          21.0005   72.6167    5.7455 H       1  UNL1        0.2105
     39 H          20.7293   71.6899    4.0210 H       1  UNL1        0.2106
     40 H          23.1746   75.0785    6.6133 H       1  UNL1        0.2106
     41 O          26.6502   75.1962    2.9764 O.co2   1  UNL1       -0.5466
     42 O          26.5704   74.4041    5.1131 O.co2   1  UNL1       -0.5466
     43 C          26.0224   74.6570    4.0507 C.2     1  UNL1        0.0799
@<TRIPOS>UNITY_ATOM_ATTR
2 1
charge -1
26 1
charge -1
41 1
charge -1
@<TRIPOS>BOND
     1     1     4    1
     2     1    24    1
     3     1     2    1
     4     1     3    2
     5    25    28    1
     6    25    24    1
     7    25    26    1
     8    25    27    2
     9     6    11    1
    10     6    12    1
    11    29    36    1
    12    29    37    1
    13     7     9    1
    14     7    13    1
    15     8    10    1
    16     8    14    1
    17     4     5    1
    18    28    36    1
    19    30    33    1
    20    30    38    1
    21    31    34    1
    22    31    39    1
    23    32    35    1
    24    32    40    1
    25    41    43   ar
    26    15    19    2
    27    42    43   ar
    28    16    22    2
    29    17    12    1
    30    17    19   ar
    31    17    20   ar
    32    18    19   ar
    33    18    22   ar
    34    18    23    1
    35     9    10    1
    36     9    11    1
    37    10    12    1
    38    11     5    1
    39    33    34    1
    40    33    35    1
    41    34    36    1
    42    35    37    1
    43    37    43    1
    44    20    21   ar
    45    21    22   ar
@<TRIPOS>MOLECULE
*****
 43 45 0 0 0
SMALL
GASTEIGER

@<TRIPOS>ATOM
      1 P          23.4602   72.3170   -3.5145 P.3     1  UNL1        0.2189
      2 O          24.0778   70.8529   -3.2081 O.co2   1  UNL1       -0.4371
      3 O          24.4496   73.3311   -4.0090 O.2     1  UNL1       -0.5170
      4 O          22.6806   72.7031   -2.1503 O.3     1  UNL1       -0.3112
      5 C          23.4110   72.7268   -0.9377 C.3     1  UNL1        0.1811
      6 O          24.4169   71.0579    0.4697 O.3     1  UNL1       -0.3308
      7 O          21.6215   70.1994    1.1331 O.3     1  UNL1       -0.3794
      8 O          22.3232   71.6800    3.3129 O.3     1  UNL1       -0.3779
      9 C          22.1313   71.5116    0.8948 C.3     1  UNL1        0.1713
     10 C          22.9460   71.9809    2.0815 C.3     1  UNL1        0.1895
     11 C          23.1870   71.4141   -0.1979 C.3     1  UNL1        0.1764
     12 C          24.2504   71.2271    1.8864 C.3     1  UNL1        0.2383
     13 H          20.9450   70.2362    1.8278 H       1  UNL1        0.2105
     14 H          21.4976   72.1846    3.3894 H       1  UNL1        0.2106
     15 O          24.2284   73.9704    2.5574 O.2     1  UNL1       -0.2464
     16 O          28.6438   73.8707    3.8757 O.2     1  UNL1       -0.2670
     17 N          25.3804   71.9434    2.4070 N.ar    1  UNL1       -0.2551
     18 N          26.4278   73.9184    3.2124 N.ar    1  UNL1       -0.2743
     19 C          25.2640   73.3203    2.7116 C.ar    1  UNL1        0.3323
     20 C          26.5856   71.2830    2.6125 C.ar    1  UNL1        0.0869
     21 C          27.6863   71.8665    3.0906 C.ar    1  UNL1        0.0795
     22 C          27.6495   73.3033    3.4333 C.ar    1  UNL1        0.2626
     23 H          26.3719   74.8770    3.4298 H       1  UNL1        0.1734
     24 O          22.2554   71.9947   -4.5428 O.3     1  UNL1       -0.2703
     25 P          21.5484   72.9123   -5.6705 P.3     1  UNL1        0.2208
     26 O          22.4492   72.6395   -6.9875 O.co2   1  UNL1       -0.4371
     27 O          21.4231   74.3608   -5.2961 O.2     1  UNL1       -0.5170
     28 O          20.1459   72.1763   -5.9769 O.3     1  UNL1       -0.2858
     29 O          19.4413   69.9884   -5.4063 O.3     1  UNL1       -0.3226
     30 O          17.4201   70.6245   -8.9529 O.3     1  UNL1       -0.3794
     31 O          20.2040   71.4618   -8.6643 O.3     1  UNL1       -0.3775
     32 O          16.0018   70.7668   -6.4192 O.3     1  UNL1       -0.3792
     33 C          18.0224   70.9927   -7.7120 C.3     1  UNL1        0.1718
     34 C          19.5085   70.6348   -7.7384 C.3     1  UNL1        0.1968
     35 C          17.3102   70.2267   -6.5949 C.3     1  UNL1        0.1723
     36 C          20.1359   70.8006   -6.3536 C.3     1  UNL1        0.2706
     37 C          18.0655   70.3383   -5.2737 C.3     1  UNL1        0.1830
     38 H          17.8566   71.0991   -9.6778 H       1  UNL1        0.2105
     39 H          19.8109   71.3618   -9.5451 H       1  UNL1        0.2106
     40 H          15.5106   70.7020   -7.2531 H       1  UNL1        0.2106
     41 O          18.5695   68.8786   -3.5083 O.co2   1  UNL1       -0.5466
     42 O          16.3948   68.9791   -4.1862 O.co2   1  UNL1       -0.5466
     43 C          17.5585   69.3378   -4.2867 C.2     1  UNL1        0.0799
@<TRIPOS>UNITY_ATOM_ATTR
2 1
charge -1
26 1
charge -1
41 1
charge -1
@<TRIPOS>BOND
     1     1     4    1
     2     1    24    1
     3     1     2    1
     4     1     3    2
     5    25    28    1
     6    25    24    1
     7    25    26    1
     8    25    27    2
     9     6    11    1
    10     6    12    1
    11    29    36    1
    12    29    37    1
    13     7     9    1
    14     7    13    1
    15     8    10    1
    16     8    14    1
    17     4     5    1
    18    28    36    1
    19    30    33    1
    20    30    38    1
    21    31    34    1
    22    31    39    1
    23    32    35    1
    24    32    40    1
    25    41    43   ar
    26    15    19    2
    27    42    43   ar
    28    16    22    2
    29    17    12    1
    30    17    19   ar
    31    17    20   ar
    32    18    19   ar
    33    18    22   ar
    34    18    23    1
    35     9    10    1
    36     9    11    1
    37    10    12    1
    38    11     5    1
    39    33    34    1
    40    33    35    1
    41    34    36    1
    42    35    37    1
    43    37    43    1
    44    20    21   ar
    45    21    22   ar
@<TRIPOS>MOLECULE
*****
 43 45 0 0 0
SMALL
GASTEIGER

@<TRIPOS>ATOM
      1 P          22.6668   72.5121   -3.9505 P.3     1  UNL1        0.2189
      2 O          22.0872   71.0084   -3.8034 O.co2   1  UNL1       -0.4371
      3 O          24.0701   72.6017   -4.4747 O.2     1  UNL1       -0.5170
      4 O          22.4180   73.1688   -2.4929 O.3     1  UNL1       -0.3112
      5 C          22.0254   74.5272   -2.4214 C.3     1  UNL1        0.1811
      6 O          20.8800   73.4684   -0.5925 O.3     1  UNL1       -0.3308
      7 O          19.8452   76.1973    0.0958 O.3     1  UNL1       -0.3794
      8 O          21.8755   75.8612    1.8849 O.3     1  UNL1       -0.3779
      9 C          21.1194   75.8190   -0.4257 C.3     1  UNL1        0.1713
     10 C          21.9567   75.1700    0.6560 C.3     1  UNL1        0.1895
     11 C          20.9059   74.6668   -1.3978 C.3     1  UNL1        0.1764
     12 C          21.3546   73.7770    0.7276 C.3     1  UNL1        0.2383
     13 H          19.9560   76.9323    0.7196 H       1  UNL1        0.2105
     14 H          22.2720   76.7416    1.7875 H       1  UNL1        0.2106
     15 O          20.8306   71.0037    0.8311 O.2     1  UNL1       -0.2464
     16 O          25.1111   70.0631    2.2581 O.2     1  UNL1       -0.2670
     17 N          22.3141   72.7850    1.1227 N.ar    1  UNL1       -0.2551
     18 N          22.9627   70.5380    1.5427 N.ar    1  UNL1       -0.2743
     19 C          21.9493   71.4180    1.1407 C.ar    1  UNL1        0.3323
     20 C          23.5995   73.1688    1.4850 C.ar    1  UNL1        0.0869
     21 C          24.5547   72.3185    1.8659 C.ar    1  UNL1        0.0795
     22 C          24.2554   70.8722    1.9128 C.ar    1  UNL1        0.2626
     23 H          22.7319   69.5811    1.5651 H       1  UNL1        0.1734
     24 O          21.5561   73.2406   -4.8717 O.3     1  UNL1       -0.2703
     25 P          19.9426   73.1398   -4.8684 P.3     1  UNL1        0.2208
     26 O          19.4752   74.6880   -4.9384 O.co2   1  UNL1       -0.4371
     27 O          19.3757   72.3746   -3.7078 O.2     1  UNL1       -0.5170
     28 O          19.5674   72.5354   -6.3163 O.3     1  UNL1       -0.2858
     29 O          18.8239   70.3138   -5.9684 O.3     1  UNL1       -0.3226
     30 O          18.4210   70.7039  -10.0615 O.3     1  UNL1       -0.3794
     31 O          20.7780   71.7621   -8.6979 O.3     1  UNL1       -0.3775
     32 O          16.0740   70.7972   -8.3488 O.3     1  UNL1       -0.3792
     33 C          18.4309   71.1480   -8.7048 C.3     1  UNL1        0.1718
     34 C          19.8129   70.9063   -8.0972 C.3     1  UNL1        0.1968
     35 C          17.3675   70.3564   -7.9403 C.3     1  UNL1        0.1723
     36 C          19.7981   71.1542   -6.5882 C.3     1  UNL1        0.2706
     37 C          17.4985   70.5587   -6.4335 C.3     1  UNL1        0.1830
     38 H          19.0892   71.1931  -10.5670 H       1  UNL1        0.2105
     39 H          20.7926   71.6103   -9.6556 H       1  UNL1        0.2106
     40 H          15.9777   70.6740   -9.3061 H       1  UNL1        0.2106
     41 O          16.3513   70.0118   -4.4621 O.co2   1  UNL1       -0.5466
     42 O          16.3703   68.4488   -6.1222 O.co2   1  UNL1       -0.5466
     43 C          16.6896   69.5462   -5.6900 C.2     1  UNL1        0.0799
@<TRIPOS>UNITY_ATOM_ATTR
2 1
charge -1
26 1
charge -1
41 1
charge -1
@<TRIPOS>BOND
     1     1     4    1
     2     1    24    1
     3     1     2    1
     4     1     3    2
     5    25    28    1
     6    25    24    1
     7    25    26    1
     8    25    27    2
     9     6    11    1
    10     6    12    1
    11    29    36    1
    12    29    37    1
    13     7     9    1
    14     7    13    1
    15     8    10    1
    16     8    14    1
    17     4     5    1
    18    28    36    1
    19    30    33    1
    20    30    38    1
    21    31    34    1
    22    31    39    1
    23    32    35    1
    24    32    40    1
    25    41    43   ar
    26    15    19    2
    27    42    43   ar
    28    16    22    2
    29    17    12    1
    30    17    19   ar
    31    17    20   ar
    32    18    19   ar
    33    18    22   ar
    34    18    23    1
    35     9    10    1
    36     9    11    1
    37    10    12    1
    38    11     5    1
    39    33    34    1
    40    33    35    1
    41    34    36    1
    42    35    37    1
    43    37    43    1
    44    20    21   ar
    45    21    22   ar
@<TRIPOS>MOLECULE
*****
 43 45 0 0 0
SMALL
GASTEIGER

@<TRIPOS>ATOM
      1 P          21.8476   72.5017   -5.6839 P.3     1  UNL1        0.2189
      2 O          21.2247   73.9506   -5.3214 O.co2   1  UNL1       -0.4371
      3 O          23.0759   72.5376   -6.5451 O.2     1  UNL1       -0.5170
      4 O          20.5914   71.6783   -6.2857 O.3     1  UNL1       -0.3112
      5 C          20.1082   72.0256   -7.5703 C.3     1  UNL1        0.1811
      6 O          18.9250   69.9750   -7.1550 O.3     1  UNL1       -0.3308
      7 O          18.1388   70.0601  -10.0475 O.3     1  UNL1       -0.3794
      8 O          15.8961   70.9728   -8.7933 O.3     1  UNL1       -0.3779
      9 C          18.2996   71.1359   -9.1227 C.3     1  UNL1        0.1713
     10 C          17.1386   71.1703   -8.1517 C.3     1  UNL1        0.1895
     11 C          19.4696   70.7988   -8.2086 C.3     1  UNL1        0.1764
     12 C          17.4907   70.0407   -7.1988 C.3     1  UNL1        0.2383
     13 H          17.3968   70.2527  -10.6423 H       1  UNL1        0.2105
     14 H          15.7175   71.7184   -9.3885 H       1  UNL1        0.2106
     15 O          16.2933   68.0577   -5.5833 O.2     1  UNL1       -0.2464
     16 O          15.6173   71.0261   -2.1228 O.2     1  UNL1       -0.2670
     17 N          16.9930   70.2680   -5.8717 N.ar    1  UNL1       -0.2551
     18 N          15.9568   69.5383   -3.8617 N.ar    1  UNL1       -0.2743
     19 C          16.4090   69.2037   -5.1449 C.ar    1  UNL1        0.3323
     20 C          17.0871   71.5323   -5.3027 C.ar    1  UNL1        0.0869
     21 C          16.6517   71.8359   -4.0783 C.ar    1  UNL1        0.0795
     22 C          16.0278   70.7809   -3.2530 C.ar    1  UNL1        0.2626
     23 H          15.5446   68.8141   -3.3373 H       1  UNL1        0.1734
     24 O          22.0630   71.8256   -4.2315 O.3     1  UNL1       -0.2703
     25 P          23.2641   71.9735   -3.1596 P.3     1  UNL1        0.2208
     26 O          23.9492   73.3833   -3.5640 O.co2   1  UNL1       -0.4371
     27 O          24.2126   70.8101   -3.1331 O.2     1  UNL1       -0.5170
     28 O          22.5259   72.2675   -1.7557 O.3     1  UNL1       -0.2858
     29 O          23.1410   70.6890   -0.1007 O.3     1  UNL1       -0.3226
     30 O          20.2248   72.8652    1.8558 O.3     1  UNL1       -0.3794
     31 O          19.8723   72.0952   -0.9401 O.3     1  UNL1       -0.3775
     32 O          23.0301   73.2785    2.4964 O.3     1  UNL1       -0.3792
     33 C          21.2996   72.6548    0.9402 C.3     1  UNL1        0.1718
     34 C          20.8968   71.5970   -0.0876 C.3     1  UNL1        0.1968
     35 C          22.5166   72.1838    1.7397 C.3     1  UNL1        0.1723
     36 C          22.0952   71.1789   -0.9407 C.3     1  UNL1        0.2706
     37 C          23.6197   71.6654    0.8216 C.3     1  UNL1        0.1830
     38 H          19.4401   73.1650    1.3703 H       1  UNL1        0.2105
     39 H          19.1089   72.3627   -0.4053 H       1  UNL1        0.2106
     40 H          22.3377   73.6178    3.0848 H       1  UNL1        0.2106
     41 O          24.1991   70.6422    2.8511 O.co2   1  UNL1       -0.5466
     42 O          25.7471   70.5844    1.1779 O.co2   1  UNL1       -0.5466
     43 C          24.6493   70.9142    1.6012 C.2     1  UNL1        0.0799
@<TRIPOS>UNITY_ATOM_ATTR
2 1
charge -1
26 1
charge -1
41 1
charge -1
@<TRIPOS>BOND
     1     1     4    1
     2     1    24    1
     3     1     2    1
     4     1     3    2
     5    25    28    1
     6    25    24    1
     7    25    26    1
     8    25    27    2
     9     6    11    1
    10     6    12    1
    11    29    36    1
    12    29    37    1
    13     7     9    1
    14     7    13    1
    15     8    10    1
    16     8    14    1
    17     4     5    1
    18    28    36    1
    19    30    33    1
    20    30    38    1
    21    31    34    1
    22    31    39    1
    23    32    35    1
    24    32    40    1
    25    41    43   ar
    26    15    19    2
    27    42    43   ar
    28    16    22    2
    29    17    12    1
    30    17    19   ar
    31    17    20   ar
    32    18    19   ar
    33    18    22   ar
    34    18    23    1
    35     9    10    1
    36     9    11    1
    37    10    12    1
    38    11     5    1
    39    33    34    1
    40    33    35    1
    41    34    36    1
    42    35    37    1
    43    37    43    1
    44    20    21   ar
    45    21    22   ar
@<TRIPOS>MOLECULE
*****
 43 45 0 0 0
SMALL
GASTEIGER

@<TRIPOS>ATOM
      1 P          23.4890   72.2487   -3.5295 P.3     1  UNL1        0.2189
      2 O          24.1190   70.8093   -3.1422 O.co2   1  UNL1       -0.4371
      3 O          24.4885   73.2841   -3.9546 O.2     1  UNL1       -0.5170
      4 O          22.5812   72.6335   -2.2466 O.3     1  UNL1       -0.3112
      5 C          23.2173   72.7945   -0.9921 C.3     1  UNL1        0.1811
      6 O          24.3228   71.2961    0.5278 O.3     1  UNL1       -0.3308
      7 O          21.6011   70.1852    1.1191 O.3     1  UNL1       -0.3794
      8 O          22.0553   71.8179    3.2555 O.3     1  UNL1       -0.3779
      9 C          21.9869   71.5316    0.8419 C.3     1  UNL1        0.1713
     10 C          22.6980   72.1298    2.0372 C.3     1  UNL1        0.1895
     11 C          23.0938   71.4974   -0.2030 C.3     1  UNL1        0.1764
     12 C          24.0786   71.5055    1.9278 C.3     1  UNL1        0.2383
     13 H          20.8947   70.1814    1.7844 H       1  UNL1        0.2105
     14 H          21.1808   72.2384    3.2767 H       1  UNL1        0.2106
     15 O          26.7177   70.6613    2.4747 O.2     1  UNL1       -0.2464
     16 O          27.9421   74.8470    3.9663 O.2     1  UNL1       -0.2670
     17 N          25.1073   72.3540    2.4594 N.ar    1  UNL1       -0.2551
     18 N          27.3247   72.7466    3.2181 N.ar    1  UNL1       -0.2743
     19 C          26.4003   71.8311    2.6980 C.ar    1  UNL1        0.3323
     20 C          24.8320   73.6874    2.7371 C.ar    1  UNL1        0.0869
     21 C          25.7235   74.5480    3.2325 C.ar    1  UNL1        0.0795
     22 C          27.0976   74.0815    3.5111 C.ar    1  UNL1        0.2626
     23 H          28.2311   72.4052    3.3944 H       1  UNL1        0.1734
     24 O          22.3894   71.8730   -4.6532 O.3     1  UNL1       -0.2703
     25 P          21.5139   72.8108   -5.6369 P.3     1  UNL1        0.2208
     26 O          22.0123   72.3668   -7.1116 O.co2   1  UNL1       -0.4371
     27 O          21.6387   74.2808   -5.3586 O.2     1  UNL1       -0.5170
     28 O          20.0120   72.2331   -5.5237 O.3     1  UNL1       -0.2858
     29 O          18.3720   72.1865   -7.2317 O.3     1  UNL1       -0.3226
     30 O          16.0361   72.3350   -3.8274 O.3     1  UNL1       -0.3794
     31 O          18.4346   73.9878   -4.0508 O.3     1  UNL1       -0.3775
     32 O          16.3283   69.8391   -5.2888 O.3     1  UNL1       -0.3792
     33 C          17.1790   71.9885   -4.6095 C.3     1  UNL1        0.1718
     34 C          17.8507   73.2611   -5.1259 C.3     1  UNL1        0.1968
     35 C          16.7062   71.1236   -5.7802 C.3     1  UNL1        0.1723
     36 C          18.9365   72.9295   -6.1506 C.3     1  UNL1        0.2706
     37 C          17.8083   70.9432   -6.8201 C.3     1  UNL1        0.1830
     38 H          16.3121   72.8850   -3.0773 H       1  UNL1        0.2105
     39 H          17.7514   74.2013   -3.3967 H       1  UNL1        0.2106
     40 H          15.6275   69.9398   -4.6258 H       1  UNL1        0.2106
     41 O          15.8968   70.3758   -8.0554 O.co2   1  UNL1       -0.5466
     42 O          17.9196   70.0028   -9.0393 O.co2   1  UNL1       -0.5466
     43 C          17.2523   70.3896   -8.0917 C.2     1  UNL1        0.0799
@<TRIPOS>UNITY_ATOM_ATTR
2 1
charge -1
26 1
charge -1
41 1
charge -1
@<TRIPOS>BOND
     1     1     4    1
     2     1    24    1
     3     1     2    1
     4     1     3    2
     5    25    28    1
     6    25    24    1
     7    25    26    1
     8    25    27    2
     9     6    11    1
    10     6    12    1
    11    29    36    1
    12    29    37    1
    13     7     9    1
    14     7    13    1
    15     8    10    1
    16     8    14    1
    17     4     5    1
    18    28    36    1
    19    30    33    1
    20    30    38    1
    21    31    34    1
    22    31    39    1
    23    32    35    1
    24    32    40    1
    25    41    43   ar
    26    15    19    2
    27    42    43   ar
    28    16    22    2
    29    17    12    1
    30    17    19   ar
    31    17    20   ar
    32    18    19   ar
    33    18    22   ar
    34    18    23    1
    35     9    10    1
    36     9    11    1
    37    10    12    1
    38    11     5    1
    39    33    34    1
    40    33    35    1
    41    34    36    1
    42    35    37    1
    43    37    43    1
    44    20    21   ar
    45    21    22   ar
@<TRIPOS>MOLECULE
*****
 43 45 0 0 0
SMALL
GASTEIGER

@<TRIPOS>ATOM
      1 P          22.4924   72.3803   -4.6773 P.3     1  UNL1        0.2189
      2 O          24.0871   72.5703   -4.4781 O.co2   1  UNL1       -0.4371
      3 O          21.8604   71.3527   -3.7849 O.2     1  UNL1       -0.5170
      4 O          22.3267   72.1278   -6.2668 O.3     1  UNL1       -0.3112
      5 C          21.0283   72.1833   -6.8285 C.3     1  UNL1        0.1811
      6 O          19.6497   70.3348   -6.1500 O.3     1  UNL1       -0.3308
      7 O          19.9178   69.3419   -8.9666 O.3     1  UNL1       -0.3794
      8 O          17.4411   70.4829   -8.9703 O.3     1  UNL1       -0.3779
      9 C          19.8157   70.6828   -8.4871 C.3     1  UNL1        0.1713
     10 C          18.3952   70.9779   -8.0542 C.3     1  UNL1        0.1895
     11 C          20.5747   70.7698   -7.1700 C.3     1  UNL1        0.1764
     12 C          18.3259   70.2831   -6.7050 C.3     1  UNL1        0.2383
     13 H          19.4403   69.2616   -9.8076 H       1  UNL1        0.2105
     14 H          17.5257   70.9570   -9.8129 H       1  UNL1        0.2106
     15 O          16.7239   68.9276   -4.8149 O.2     1  UNL1       -0.2464
     16 O          14.8692   72.8630   -3.2928 O.2     1  UNL1       -0.2670
     17 N          17.4155   70.9289   -5.8022 N.ar    1  UNL1       -0.2551
     18 N          15.8009   70.8888   -4.0593 N.ar    1  UNL1       -0.2743
     19 C          16.6570   70.1558   -4.8917 C.ar    1  UNL1        0.3323
     20 C          17.2821   72.3119   -5.8231 C.ar    1  UNL1        0.0869
     21 C          16.4620   72.9965   -5.0234 C.ar    1  UNL1        0.0795
     22 C          15.6334   72.2641   -4.0435 C.ar    1  UNL1        0.2626
     23 H          15.2610   70.3722   -3.4183 H       1  UNL1        0.1734
     24 O          21.9215   73.8805   -4.4862 O.3     1  UNL1       -0.2703
     25 P          22.1674   74.9687   -3.3162 P.3     1  UNL1        0.2208
     26 O          20.6682   75.4402   -2.9285 O.co2   1  UNL1       -0.4371
     27 O          23.0881   76.0902   -3.7018 O.2     1  UNL1       -0.5170
     28 O          22.6622   74.1021   -2.0486 O.3     1  UNL1       -0.2858
     29 O          21.5663   73.1975   -0.1540 O.3     1  UNL1       -0.3226
     30 O          25.1599   74.4356    1.4650 O.3     1  UNL1       -0.3794
     31 O          23.7488   76.1141   -0.4651 O.3     1  UNL1       -0.3775
     32 O          24.6801   71.6122    0.9655 O.3     1  UNL1       -0.3792
     33 C          24.2929   73.9333    0.4481 C.3     1  UNL1        0.1718
     34 C          23.1974   74.9593    0.1570 C.3     1  UNL1        0.1968
     35 C          23.6775   72.6267    0.9542 C.3     1  UNL1        0.1723
     36 C          22.1221   74.3675   -0.7553 C.3     1  UNL1        0.2706
     37 C          22.5297   72.1683    0.0594 C.3     1  UNL1        0.1830
     38 H          25.5626   75.2660    1.1657 H       1  UNL1        0.2105
     39 H          24.4320   76.4946    0.1082 H       1  UNL1        0.2106
     40 H          25.4166   71.8917    1.5314 H       1  UNL1        0.2106
     41 O          22.1058   70.9584    2.0236 O.co2   1  UNL1       -0.5466
     42 O          20.8605   70.4308    0.1878 O.co2   1  UNL1       -0.5466
     43 C          21.7323   71.0956    0.7272 C.2     1  UNL1        0.0799
@<TRIPOS>UNITY_ATOM_ATTR
2 1
charge -1
26 1
charge -1
41 1
charge -1
@<TRIPOS>BOND
     1     1     4    1
     2     1    24    1
     3     1     2    1
     4     1     3    2
     5    25    28    1
     6    25    24    1
     7    25    26    1
     8    25    27    2
     9     6    11    1
    10     6    12    1
    11    29    36    1
    12    29    37    1
    13     7     9    1
    14     7    13    1
    15     8    10    1
    16     8    14    1
    17     4     5    1
    18    28    36    1
    19    30    33    1
    20    30    38    1
    21    31    34    1
    22    31    39    1
    23    32    35    1
    24    32    40    1
    25    41    43   ar
    26    15    19    2
    27    42    43   ar
    28    16    22    2
    29    17    12    1
    30    17    19   ar
    31    17    20   ar
    32    18    19   ar
    33    18    22   ar
    34    18    23    1
    35     9    10    1
    36     9    11    1
    37    10    12    1
    38    11     5    1
    39    33    34    1
    40    33    35    1
    41    34    36    1
    42    35    37    1
    43    37    43    1
    44    20    21   ar
    45    21    22   ar
@<TRIPOS>MOLECULE
*****
 43 45 0 0 0
SMALL
GASTEIGER

@<TRIPOS>ATOM
      1 P          21.9864   73.1285   -2.2712 P.3     1  UNL1        0.2189
      2 O          22.4138   71.7908   -3.0754 O.co2   1  UNL1       -0.4371
      3 O          22.4475   74.4149   -2.8911 O.2     1  UNL1       -0.5170
      4 O          22.4972   72.8536   -0.7608 O.3     1  UNL1       -0.3112
      5 C          21.8434   73.5174    0.3053 C.3     1  UNL1        0.1811
      6 O          22.5068   71.6199    1.6233 O.3     1  UNL1       -0.3308
      7 O          20.0910   72.1809    3.3088 O.3     1  UNL1       -0.3794
      8 O          22.1157   73.2373    4.7990 O.3     1  UNL1       -0.3779
      9 C          20.9715   73.0973    2.6581 C.3     1  UNL1        0.1713
     10 C          22.2897   73.1734    3.3990 C.3     1  UNL1        0.1895
     11 C          21.3884   72.4844    1.3282 C.3     1  UNL1        0.1764
     12 C          22.9765   71.8939    2.9528 C.3     1  UNL1        0.2383
     13 H          19.8111   72.5508    4.1612 H       1  UNL1        0.2105
     14 H          21.6748   74.0699    5.0324 H       1  UNL1        0.2106
     15 O          24.7508   69.7949    2.3029 O.2     1  UNL1       -0.2464
     16 O          28.4432   72.4919    2.8825 O.2     1  UNL1       -0.2670
     17 N          24.4063   72.0200    2.9261 N.ar    1  UNL1       -0.2551
     18 N          26.5882   71.1399    2.5932 N.ar    1  UNL1       -0.2743
     19 C          25.2071   70.9040    2.5868 C.ar    1  UNL1        0.3323
     20 C          25.0009   73.2382    3.2319 C.ar    1  UNL1        0.0869
     21 C          26.3188   73.4478    3.2336 C.ar    1  UNL1        0.0795
     22 C          27.2263   72.3331    2.8910 C.ar    1  UNL1        0.2626
     23 H          27.1663   70.3772    2.3621 H       1  UNL1        0.1734
     24 O          20.3818   72.9790   -2.1451 O.3     1  UNL1       -0.2703
     25 P          19.4487   71.6714   -1.9633 P.3     1  UNL1        0.2208
     26 O          18.1323   72.2562   -1.2247 O.co2   1  UNL1       -0.4371
     27 O          20.1125   70.5372   -1.2375 O.2     1  UNL1       -0.5170
     28 O          18.9524   71.3121   -3.4557 O.3     1  UNL1       -0.2858
     29 O          19.7509   72.0457   -5.5612 O.3     1  UNL1       -0.3226
     30 O          15.7127   71.5910   -6.3056 O.3     1  UNL1       -0.3794
     31 O          16.6315   72.8030   -3.8113 O.3     1  UNL1       -0.3775
     32 O          17.6086   69.6180   -7.2872 O.3     1  UNL1       -0.3792
     33 C          16.9645   71.2981   -5.6849 C.3     1  UNL1        0.1718
     34 C          17.4640   72.5320   -4.9330 C.3     1  UNL1        0.1968
     35 C          17.9562   70.9059   -6.7824 C.3     1  UNL1        0.1723
     36 C          18.9014   72.3336   -4.4499 C.3     1  UNL1        0.2706
     37 C          19.3848   70.8515   -6.2489 C.3     1  UNL1        0.1830
     38 H          15.0664   71.8429   -5.6273 H       1  UNL1        0.2105
     39 H          15.7178   72.9297   -4.1105 H       1  UNL1        0.2106
     40 H          16.7014   69.6390   -7.6297 H       1  UNL1        0.2106
     41 O          20.6761   72.0450   -7.8012 O.co2   1  UNL1       -0.5466
     42 O          20.8386   69.7710   -7.8427 O.co2   1  UNL1       -0.5466
     43 C          20.3688   70.7959   -7.3718 C.2     1  UNL1        0.0799
@<TRIPOS>UNITY_ATOM_ATTR
2 1
charge -1
26 1
charge -1
41 1
charge -1
@<TRIPOS>BOND
     1     1     4    1
     2     1    24    1
     3     1     2    1
     4     1     3    2
     5    25    28    1
     6    25    24    1
     7    25    26    1
     8    25    27    2
     9     6    11    1
    10     6    12    1
    11    29    36    1
    12    29    37    1
    13     7     9    1
    14     7    13    1
    15     8    10    1
    16     8    14    1
    17     4     5    1
    18    28    36    1
    19    30    33    1
    20    30    38    1
    21    31    34    1
    22    31    39    1
    23    32    35    1
    24    32    40    1
    25    41    43   ar
    26    15    19    2
    27    42    43   ar
    28    16    22    2
    29    17    12    1
    30    17    19   ar
    31    17    20   ar
    32    18    19   ar
    33    18    22   ar
    34    18    23    1
    35     9    10    1
    36     9    11    1
    37    10    12    1
    38    11     5    1
    39    33    34    1
    40    33    35    1
    41    34    36    1
    42    35    37    1
    43    37    43    1
    44    20    21   ar
    45    21    22   ar
@<TRIPOS>MOLECULE
*****
 43 45 0 0 0
SMALL
GASTEIGER

@<TRIPOS>ATOM
      1 P          22.6457   72.3118   -3.6282 P.3     1  UNL1        0.2189
      2 O          22.0346   70.8144   -3.6845 O.co2   1  UNL1       -0.4371
      3 O          24.0851   72.4245   -4.0372 O.2     1  UNL1       -0.5170
      4 O          22.2992   72.8169   -2.1306 O.3     1  UNL1       -0.3112
      5 C          23.3079   72.7381   -1.1402 C.3     1  UNL1        0.1811
      6 O          24.3191   71.2410    0.4452 O.3     1  UNL1       -0.3308
      7 O          21.5680   70.1243    0.8646 O.3     1  UNL1       -0.3794
      8 O          21.8843   71.7567    3.0259 O.3     1  UNL1       -0.3779
      9 C          21.9676   71.4717    0.6126 C.3     1  UNL1        0.1713
     10 C          22.6013   72.0706    1.8503 C.3     1  UNL1        0.1895
     11 C          23.1378   71.4403   -0.3611 C.3     1  UNL1        0.1764
     12 C          23.9874   71.4491    1.8272 C.3     1  UNL1        0.2383
     13 H          20.8213   70.1187    1.4843 H       1  UNL1        0.2105
     14 H          21.0094   72.1755    2.9925 H       1  UNL1        0.2106
     15 O          26.6473   70.6646    2.3621 O.2     1  UNL1       -0.2464
     16 O          27.7060   74.7943    4.1140 O.2     1  UNL1       -0.2670
     17 N          24.9791   72.2993    2.4225 N.ar    1  UNL1       -0.2551
     18 N          27.1717   72.7218    3.2351 N.ar    1  UNL1       -0.2743
     19 C          26.2865   71.8077    2.6489 C.ar    1  UNL1        0.3323
     20 C          24.6539   73.6039    2.7738 C.ar    1  UNL1        0.0869
     21 C          25.5086   74.4635    3.3317 C.ar    1  UNL1        0.0795
     22 C          26.8945   74.0287    3.6025 C.ar    1  UNL1        0.2626
     23 H          28.0873   72.4017    3.4043 H       1  UNL1        0.1734
     24 O          21.6173   73.1581   -4.5442 O.3     1  UNL1       -0.2703
     25 P          21.3430   73.1281   -6.1372 P.3     1  UNL1        0.2208
     26 O          22.4967   72.1377   -6.6925 O.co2   1  UNL1       -0.4371
     27 O          21.3263   74.4824   -6.7848 O.2     1  UNL1       -0.5170
     28 O          19.9740   72.2906   -6.3010 O.3     1  UNL1       -0.2858
     29 O          19.2833   70.1091   -5.6902 O.3     1  UNL1       -0.3226
     30 O          17.5253   70.5385   -9.4040 O.3     1  UNL1       -0.3794
     31 O          20.2566   71.4665   -8.9424 O.3     1  UNL1       -0.3775
     32 O          15.9133   70.7458   -6.9938 O.3     1  UNL1       -0.3792
     33 C          18.0208   70.9753   -8.1385 C.3     1  UNL1        0.1718
     34 C          19.5133   70.6593   -8.0366 C.3     1  UNL1        0.1968
     35 C          17.2445   70.2365   -7.0461 C.3     1  UNL1        0.1723
     36 C          20.0279   70.9007   -6.6168 C.3     1  UNL1        0.2706
     37 C          17.8929   70.4248   -5.6776 C.3     1  UNL1        0.1830
     38 H          18.0040   70.9947  -10.1139 H       1  UNL1        0.2105
     39 H          19.9351   71.3186   -9.8453 H       1  UNL1        0.2106
     40 H          15.4894   70.6322   -7.8588 H       1  UNL1        0.2106
     41 O          18.0391   69.4943   -3.5295 O.co2   1  UNL1       -0.5466
     42 O          16.3808   68.7183   -4.8884 O.co2   1  UNL1       -0.5466
     43 C          17.3371   69.4522   -4.6889 C.2     1  UNL1        0.0799
@<TRIPOS>UNITY_ATOM_ATTR
2 1
charge -1
26 1
charge -1
41 1
charge -1
@<TRIPOS>BOND
     1     1     4    1
     2     1    24    1
     3     1     2    1
     4     1     3    2
     5    25    28    1
     6    25    24    1
     7    25    26    1
     8    25    27    2
     9     6    11    1
    10     6    12    1
    11    29    36    1
    12    29    37    1
    13     7     9    1
    14     7    13    1
    15     8    10    1
    16     8    14    1
    17     4     5    1
    18    28    36    1
    19    30    33    1
    20    30    38    1
    21    31    34    1
    22    31    39    1
    23    32    35    1
    24    32    40    1
    25    41    43   ar
    26    15    19    2
    27    42    43   ar
    28    16    22    2
    29    17    12    1
    30    17    19   ar
    31    17    20   ar
    32    18    19   ar
    33    18    22   ar
    34    18    23    1
    35     9    10    1
    36     9    11    1
    37    10    12    1
    38    11     5    1
    39    33    34    1
    40    33    35    1
    41    34    36    1
    42    35    37    1
    43    37    43    1
    44    20    21   ar
    45    21    22   ar
@<TRIPOS>MOLECULE
*****
 43 45 0 0 0
SMALL
GASTEIGER

@<TRIPOS>ATOM
      1 P          23.5638   72.3583   -3.2938 P.3     1  UNL1        0.2189
      2 O          24.0896   70.8283   -3.2562 O.co2   1  UNL1       -0.4371
      3 O          24.5634   73.3596   -3.7937 O.2     1  UNL1       -0.5170
      4 O          23.0021   72.6130   -1.7979 O.3     1  UNL1       -0.3112
      5 C          22.7596   71.4927   -0.9669 C.3     1  UNL1        0.1811
      6 O          21.0010   71.0778    0.6183 O.3     1  UNL1       -0.3308
      7 O          19.1314   72.1886   -1.4462 O.3     1  UNL1       -0.3794
      8 O          19.4408   74.2868    0.2679 O.3     1  UNL1       -0.3779
      9 C          20.4669   72.5830   -1.1309 C.3     1  UNL1        0.1713
     10 C          20.4928   73.3491    0.1748 C.3     1  UNL1        0.1895
     11 C          21.2566   71.3293   -0.7805 C.3     1  UNL1        0.1764
     12 C          20.3732   72.2325    1.1979 C.3     1  UNL1        0.2383
     13 H          18.6073   72.9731   -1.6734 H       1  UNL1        0.2105
     14 H          19.5625   74.9769   -0.4036 H       1  UNL1        0.2106
     15 O          19.2724   73.8787    3.2116 O.2     1  UNL1       -0.2464
     16 O          22.9821   73.3811    5.9013 O.2     1  UNL1       -0.2670
     17 N          21.0298   72.5497    2.4345 N.ar    1  UNL1       -0.2551
     18 N          21.1216   73.6301    4.5488 N.ar    1  UNL1       -0.2743
     19 C          20.3898   73.3865    3.3791 C.ar    1  UNL1        0.3323
     20 C          22.2917   72.0331    2.7021 C.ar    1  UNL1        0.0869
     21 C          22.9767   72.2741    3.8217 C.ar    1  UNL1        0.0795
     22 C          22.3794   73.1396    4.8598 C.ar    1  UNL1        0.2626
     23 H          20.6974   74.2116    5.2206 H       1  UNL1        0.1734
     24 O          22.2136   72.2564   -4.1765 O.3     1  UNL1       -0.2703
     25 P          21.8031   72.9592   -5.5734 P.3     1  UNL1        0.2208
     26 O          22.8964   72.3770   -6.6155 O.co2   1  UNL1       -0.4371
     27 O          21.7422   74.4581   -5.5141 O.2     1  UNL1       -0.5170
     28 O          20.4180   72.2491   -5.9973 O.3     1  UNL1       -0.2858
     29 O          19.8860   70.0873   -5.1894 O.3     1  UNL1       -0.3226
     30 O          17.3195   70.4370   -8.4079 O.3     1  UNL1       -0.3794
     31 O          20.0841   71.3592   -8.6113 O.3     1  UNL1       -0.3775
     32 O          16.3064   70.7127   -5.6971 O.3     1  UNL1       -0.3792
     33 C          18.0936   70.9014   -7.3019 C.3     1  UNL1        0.1718
     34 C          19.5692   70.5788   -7.5387 C.3     1  UNL1        0.1968
     35 C          17.5896   70.1941   -6.0419 C.3     1  UNL1        0.1723
     36 C          20.3972   70.8515   -6.2821 C.3     1  UNL1        0.2706
     37 C          18.5360   70.4117   -4.8647 C.3     1  UNL1        0.1830
     38 H          17.6220   70.8729   -9.2202 H       1  UNL1        0.2105
     39 H          19.5631   71.1914   -9.4118 H       1  UNL1        0.2106
     40 H          15.6945   70.5807   -6.4381 H       1  UNL1        0.2106
     41 O          17.3705   68.4986   -4.1694 O.co2   1  UNL1       -0.5466
     42 O          18.6698   69.5468   -2.6163 O.co2   1  UNL1       -0.5466
     43 C          18.2226   69.4669   -3.7506 C.2     1  UNL1        0.0799
@<TRIPOS>UNITY_ATOM_ATTR
2 1
charge -1
26 1
charge -1
41 1
charge -1
@<TRIPOS>BOND
     1     1     4    1
     2     1    24    1
     3     1     2    1
     4     1     3    2
     5    25    28    1
     6    25    24    1
     7    25    26    1
     8    25    27    2
     9     6    11    1
    10     6    12    1
    11    29    36    1
    12    29    37    1
    13     7     9    1
    14     7    13    1
    15     8    10    1
    16     8    14    1
    17     4     5    1
    18    28    36    1
    19    30    33    1
    20    30    38    1
    21    31    34    1
    22    31    39    1
    23    32    35    1
    24    32    40    1
    25    41    43   ar
    26    15    19    2
    27    42    43   ar
    28    16    22    2
    29    17    12    1
    30    17    19   ar
    31    17    20   ar
    32    18    19   ar
    33    18    22   ar
    34    18    23    1
    35     9    10    1
    36     9    11    1
    37    10    12    1
    38    11     5    1
    39    33    34    1
    40    33    35    1
    41    34    36    1
    42    35    37    1
    43    37    43    1
    44    20    21   ar
    45    21    22   ar
@<TRIPOS>MOLECULE
*****
 43 45 0 0 0
SMALL
GASTEIGER

@<TRIPOS>ATOM
      1 P          17.2027   69.5486   -3.7886 P.3     1  UNL1        0.2189
      2 O          18.4956   68.6324   -3.4599 O.co2   1  UNL1       -0.4371
      3 O          16.1036   68.8494   -4.5335 O.2     1  UNL1       -0.5170
      4 O          17.8255   70.8527   -4.5161 O.3     1  UNL1       -0.3112
      5 C          18.9082   70.6753   -5.4111 C.3     1  UNL1        0.1811
      6 O          20.0212   72.6640   -4.6470 O.3     1  UNL1       -0.3308
      7 O          20.6161   73.2161   -7.5337 O.3     1  UNL1       -0.3794
      8 O          22.9768   72.1998   -6.6226 O.3     1  UNL1       -0.3779
      9 C          20.5667   71.9669   -6.8441 C.3     1  UNL1        0.1713
     10 C          21.7902   71.8034   -5.9674 C.3     1  UNL1        0.1895
     11 C          19.4459   72.0417   -5.8162 C.3     1  UNL1        0.1764
     12 C          21.4508   72.6926   -4.7834 C.3     1  UNL1        0.2383
     13 H          21.3249   73.1924   -8.1960 H       1  UNL1        0.2105
     14 H          23.1494   71.6029   -7.3682 H       1  UNL1        0.2106
     15 O          24.2144   72.8058   -4.2121 O.2     1  UNL1       -0.2464
     16 O          23.6215   70.8854   -0.0643 O.2     1  UNL1       -0.2670
     17 N          22.0458   72.2292   -3.5618 N.ar    1  UNL1       -0.2551
     18 N          23.9166   71.8483   -2.1472 N.ar    1  UNL1       -0.2743
     19 C          23.4445   72.3316   -3.3747 C.ar    1  UNL1        0.3323
     20 C          21.2467   71.6826   -2.5650 C.ar    1  UNL1        0.0869
     21 C          21.7112   71.2263   -1.4001 C.ar    1  UNL1        0.0795
     22 C          23.1614   71.2957   -1.1255 C.ar    1  UNL1        0.2626
     23 H          24.8875   71.9071   -1.9948 H       1  UNL1        0.1734
     24 O          16.7780   70.1119   -2.3343 O.3     1  UNL1       -0.2703
     25 P          15.8912   71.3956   -1.9108 P.3     1  UNL1        0.2208
     26 O          15.0063   71.6869   -3.2346 O.co2   1  UNL1       -0.4371
     27 O          16.6960   72.5699   -1.4342 O.2     1  UNL1       -0.5170
     28 O          14.8352   70.8258   -0.8325 O.3     1  UNL1       -0.2858
     29 O          13.7940   68.7149   -0.5695 O.3     1  UNL1       -0.3226
     30 O          10.7707   71.2910    0.5670 O.3     1  UNL1       -0.3794
     31 O          12.4394   71.8979   -1.7528 O.3     1  UNL1       -0.3775
     32 O          12.2505   69.8008    2.5771 O.3     1  UNL1       -0.3792
     33 C          12.1208   70.8532    0.4136 C.3     1  UNL1        0.1718
     34 C          12.4272   70.6494   -1.0703 C.3     1  UNL1        0.1968
     35 C          12.2803   69.5359    1.1759 C.3     1  UNL1        0.1723
     36 C          13.7815   69.9647   -1.2603 C.3     1  UNL1        0.2706
     37 C          13.6018   68.8525    0.8367 C.3     1  UNL1        0.1830
     38 H          10.6455   72.1269    0.0907 H       1  UNL1        0.2105
     39 H          11.5832   72.3380   -1.6362 H       1  UNL1        0.2106
     40 H          11.4144   70.2360    2.8062 H       1  UNL1        0.2106
     41 O          14.6775   67.2047    2.1131 O.co2   1  UNL1       -0.5466
     42 O          12.7617   66.5994    1.0349 O.co2   1  UNL1       -0.5466
     43 C          13.6055   67.4373    1.3158 C.2     1  UNL1        0.0799
@<TRIPOS>UNITY_ATOM_ATTR
2 1
charge -1
26 1
charge -1
41 1
charge -1
@<TRIPOS>BOND
     1     1     4    1
     2     1    24    1
     3     1     2    1
     4     1     3    2
     5    25    28    1
     6    25    24    1
     7    25    26    1
     8    25    27    2
     9     6    11    1
    10     6    12    1
    11    29    36    1
    12    29    37    1
    13     7     9    1
    14     7    13    1
    15     8    10    1
    16     8    14    1
    17     4     5    1
    18    28    36    1
    19    30    33    1
    20    30    38    1
    21    31    34    1
    22    31    39    1
    23    32    35    1
    24    32    40    1
    25    41    43   ar
    26    15    19    2
    27    42    43   ar
    28    16    22    2
    29    17    12    1
    30    17    19   ar
    31    17    20   ar
    32    18    19   ar
    33    18    22   ar
    34    18    23    1
    35     9    10    1
    36     9    11    1
    37    10    12    1
    38    11     5    1
    39    33    34    1
    40    33    35    1
    41    34    36    1
    42    35    37    1
    43    37    43    1
    44    20    21   ar
    45    21    22   ar
@<TRIPOS>MOLECULE
*****
 43 45 0 0 0
SMALL
GASTEIGER

@<TRIPOS>ATOM
      1 P          21.6535   71.8724   -5.2320 P.3     1  UNL1        0.2189
      2 O          23.0146   72.7061   -5.4993 O.co2   1  UNL1       -0.4371
      3 O          21.7589   70.8081   -4.1794 O.2     1  UNL1       -0.5170
      4 O          21.2140   71.3639   -6.7038 O.3     1  UNL1       -0.3112
      5 C          20.0395   71.9027   -7.2825 C.3     1  UNL1        0.1811
      6 O          18.6321   69.9717   -7.0212 O.3     1  UNL1       -0.3308
      7 O          17.9392   70.3154   -9.9183 O.3     1  UNL1       -0.3794
      8 O          15.7738   71.3898   -8.6563 O.3     1  UNL1       -0.3779
      9 C          18.1891   71.3099   -8.9248 C.3     1  UNL1        0.1713
     10 C          17.0123   71.4121   -7.9778 C.3     1  UNL1        0.1895
     11 C          19.2907   70.7932   -8.0095 C.3     1  UNL1        0.1764
     12 C          17.2149   70.1957   -7.0905 C.3     1  UNL1        0.2383
     13 H          17.2387   70.6230  -10.5152 H       1  UNL1        0.2105
     14 H          15.6926   72.1848   -9.2071 H       1  UNL1        0.2106
     15 O          16.4089   68.1137   -5.3608 O.2     1  UNL1       -0.2464
     16 O          15.2866   71.0801   -2.0164 O.2     1  UNL1       -0.2670
     17 N          16.7082   70.3957   -5.7623 N.ar    1  UNL1       -0.2551
     18 N          15.8497   69.5932   -3.6971 N.ar    1  UNL1       -0.2743
     19 C          16.3310   69.2818   -4.9756 C.ar    1  UNL1        0.3323
     20 C          16.5908   71.6826   -5.2513 C.ar    1  UNL1        0.0869
     21 C          16.1304   71.9636   -4.0307 C.ar    1  UNL1        0.0795
     22 C          15.7140   70.8566   -3.1449 C.ar    1  UNL1        0.2626
     23 H          15.5789   68.8341   -3.1315 H       1  UNL1        0.1734
     24 O          20.5745   73.0324   -4.9111 O.3     1  UNL1       -0.2703
     25 P          20.4368   74.0343   -3.6498 P.3     1  UNL1        0.2208
     26 O          18.8351   74.1827   -3.4685 O.co2   1  UNL1       -0.4371
     27 O          21.1637   75.3374   -3.8161 O.2     1  UNL1       -0.5170
     28 O          20.9111   73.1606   -2.3793 O.3     1  UNL1       -0.2858
     29 O          21.2091   73.8206   -0.1244 O.3     1  UNL1       -0.3226
     30 O          24.0680   70.8646   -0.5198 O.3     1  UNL1       -0.3794
     31 O          23.6588   72.8233   -2.6484 O.3     1  UNL1       -0.3775
     32 O          21.5966   70.3222    0.9116 O.3     1  UNL1       -0.3792
     33 C          22.8264   71.5198   -0.7791 C.3     1  UNL1        0.1718
     34 C          23.0924   72.9145   -1.3462 C.3     1  UNL1        0.1968
     35 C          22.0596   71.6196    0.5415 C.3     1  UNL1        0.1723
     36 C          21.8009   73.7301   -1.4209 C.3     1  UNL1        0.2706
     37 C          20.8564   72.5500    0.4181 C.3     1  UNL1        0.1830
     38 H          24.5728   70.7899   -1.3450 H       1  UNL1        0.2105
     39 H          24.4785   72.3067   -2.6085 H       1  UNL1        0.2106
     40 H          22.3527   69.7202    0.9933 H       1  UNL1        0.2106
     41 O          19.6278   74.0671    1.7183 O.co2   1  UNL1       -0.5466
     42 O          20.4651   72.2295    2.7772 O.co2   1  UNL1       -0.5466
     43 C          20.3154   72.8993    1.7663 C.2     1  UNL1        0.0799
@<TRIPOS>UNITY_ATOM_ATTR
2 1
charge -1
26 1
charge -1
41 1
charge -1
@<TRIPOS>BOND
     1     1     4    1
     2     1    24    1
     3     1     2    1
     4     1     3    2
     5    25    28    1
     6    25    24    1
     7    25    26    1
     8    25    27    2
     9     6    11    1
    10     6    12    1
    11    29    36    1
    12    29    37    1
    13     7     9    1
    14     7    13    1
    15     8    10    1
    16     8    14    1
    17     4     5    1
    18    28    36    1
    19    30    33    1
    20    30    38    1
    21    31    34    1
    22    31    39    1
    23    32    35    1
    24    32    40    1
    25    41    43   ar
    26    15    19    2
    27    42    43   ar
    28    16    22    2
    29    17    12    1
    30    17    19   ar
    31    17    20   ar
    32    18    19   ar
    33    18    22   ar
    34    18    23    1
    35     9    10    1
    36     9    11    1
    37    10    12    1
    38    11     5    1
    39    33    34    1
    40    33    35    1
    41    34    36    1
    42    35    37    1
    43    37    43    1
    44    20    21   ar
    45    21    22   ar
@<TRIPOS>MOLECULE
*****
 43 45 0 0 0
SMALL
GASTEIGER

@<TRIPOS>ATOM
      1 P          23.1430   71.7424   -2.8619 P.3     1  UNL1        0.2189
      2 O          23.4576   73.2817   -3.2498 O.co2   1  UNL1       -0.4371
      3 O          24.2339   70.7685   -3.1987 O.2     1  UNL1       -0.5170
      4 O          21.7070   71.4542   -3.5494 O.3     1  UNL1       -0.3112
      5 C          21.4945   71.8901   -4.8796 C.3     1  UNL1        0.1811
      6 O          19.6642   70.3966   -5.3234 O.3     1  UNL1       -0.3308
      7 O          21.0398   69.7792   -7.9154 O.3     1  UNL1       -0.3794
      8 O          19.0884   71.5249   -8.6774 O.3     1  UNL1       -0.3779
      9 C          20.9580   71.0169   -7.2081 C.3     1  UNL1        0.1713
     10 C          19.5742   71.6135   -7.3543 C.3     1  UNL1        0.1895
     11 C          21.0173   70.7111   -5.7178 C.3     1  UNL1        0.1764
     12 C          18.7654   70.7774   -6.3772 C.3     1  UNL1        0.2383
     13 H          21.0038   69.9490   -8.8701 H       1  UNL1        0.2105
     14 H          19.6362   72.0745   -9.2604 H       1  UNL1        0.2106
     15 O          16.4788   69.5792   -5.2317 O.2     1  UNL1       -0.2464
     16 O          14.6067   73.6723   -4.2390 O.2     1  UNL1       -0.2670
     17 N          17.6654   71.5063   -5.8120 N.ar    1  UNL1       -0.2551
     18 N          15.5481   71.6190   -4.7393 N.ar    1  UNL1       -0.2743
     19 C          16.5643   70.8083   -5.2619 C.ar    1  UNL1        0.3323
     20 C          17.6847   72.8958   -5.8046 C.ar    1  UNL1        0.0869
     21 C          16.7086   73.6548   -5.3027 C.ar    1  UNL1        0.0795
     22 C          15.5220   73.0039   -4.7097 C.ar    1  UNL1        0.2626
     23 H          14.7702   71.1557   -4.3526 H       1  UNL1        0.1734
     24 O          22.7816   71.8311   -1.2889 O.3     1  UNL1       -0.2703
     25 P          21.6148   72.6362   -0.5117 P.3     1  UNL1        0.2208
     26 O          20.4752   71.5090   -0.2857 O.co2   1  UNL1       -0.4371
     27 O          21.1347   73.8664   -1.2259 O.2     1  UNL1       -0.5170
     28 O          22.2160   72.9083    0.9603 O.3     1  UNL1       -0.2858
     29 O          23.9397   71.6374    1.9716 O.3     1  UNL1       -0.3226
     30 O          21.9968   73.1927    5.2692 O.3     1  UNL1       -0.3794
     31 O          20.4712   72.1709    2.9970 O.3     1  UNL1       -0.3775
     32 O          24.5478   74.2998    4.4219 O.3     1  UNL1       -0.3792
     33 C          22.4736   73.1796    3.9237 C.3     1  UNL1        0.1718
     34 C          21.8706   71.9885    3.1785 C.3     1  UNL1        0.1968
     35 C          23.9992   73.0654    3.9637 C.3     1  UNL1        0.1723
     36 C          22.5309   71.8075    1.8110 C.3     1  UNL1        0.2706
     37 C          24.5714   72.7603    2.5824 C.3     1  UNL1        0.1830
     38 H          21.0293   73.2646    5.2688 H       1  UNL1        0.2105
     39 H          20.0459   72.2867    3.8607 H       1  UNL1        0.2106
     40 H          24.1914   74.5057    5.3003 H       1  UNL1        0.2106
     41 O          26.8098   73.3991    2.8704 O.co2   1  UNL1       -0.5466
     42 O          26.3886   71.1734    2.6096 O.co2   1  UNL1       -0.5466
     43 C          25.9983   72.3289    2.6828 C.2     1  UNL1        0.0799
@<TRIPOS>UNITY_ATOM_ATTR
2 1
charge -1
26 1
charge -1
41 1
charge -1
@<TRIPOS>BOND
     1     1     4    1
     2     1    24    1
     3     1     2    1
     4     1     3    2
     5    25    28    1
     6    25    24    1
     7    25    26    1
     8    25    27    2
     9     6    11    1
    10     6    12    1
    11    29    36    1
    12    29    37    1
    13     7     9    1
    14     7    13    1
    15     8    10    1
    16     8    14    1
    17     4     5    1
    18    28    36    1
    19    30    33    1
    20    30    38    1
    21    31    34    1
    22    31    39    1
    23    32    35    1
    24    32    40    1
    25    41    43   ar
    26    15    19    2
    27    42    43   ar
    28    16    22    2
    29    17    12    1
    30    17    19   ar
    31    17    20   ar
    32    18    19   ar
    33    18    22   ar
    34    18    23    1
    35     9    10    1
    36     9    11    1
    37    10    12    1
    38    11     5    1
    39    33    34    1
    40    33    35    1
    41    34    36    1
    42    35    37    1
    43    37    43    1
    44    20    21   ar
    45    21    22   ar
