@<TRIPOS>MOLECULE
UD2
 46 48 0 0 0
SMALL
GASTEIGER

@<TRIPOS>ATOM
      1 P          21.9930   70.8451   -2.6710 P.3     1  UNL1        0.2189
      2 O          21.3432   69.3727   -2.7045 O.3     1  UNL1       -0.4371
      3 O          23.3141   70.8172   -3.3365 O.2     1  UNL1       -0.5170
      4 O          21.0253   71.8763   -3.4417 O.3     1  UNL1       -0.3112
      5 C          20.0220   72.6457   -2.7764 C.3     1  UNL1        0.1811
      6 C          17.8548   71.4792   -5.3992 C.3     1  UNL1        0.2383
      7 C          18.0038   70.2649   -4.4477 C.3     1  UNL1        0.1895
      8 O          16.8238   69.4591   -4.4606 O.3     1  UNL1       -0.3779
      9 C          18.1895   70.9504   -3.0719 C.3     1  UNL1        0.1713
     10 C          18.6607   72.3750   -3.4216 C.3     1  UNL1        0.1764
     11 O          18.7742   72.4490   -4.8517 O.3     1  UNL1       -0.3308
     12 O          16.9493   70.9929   -2.3642 O.3     1  UNL1       -0.3794
     13 H          16.8685   68.6864   -3.8812 H       1  UNL1        0.2106
     14 H          16.5766   70.1225   -2.1696 H       1  UNL1        0.2105
     15 N          18.2407   71.1153   -6.7644 N.ar    1  UNL1       -0.2551
     16 C          17.2965   70.7437   -7.6471 C.ar    1  UNL1        0.3323
     17 N          17.6224   70.4038   -8.9082 N.ar    1  UNL1       -0.2743
     18 C          18.9101   70.4331   -9.3078 C.ar    1  UNL1        0.2626
     19 C          19.9142   70.8233   -8.3893 C.ar    1  UNL1        0.0795
     20 C          19.5583   71.1630   -7.1325 C.ar    1  UNL1        0.0869
     21 O          16.1314   70.7129   -7.3007 O.2     1  UNL1       -0.2464
     22 O          19.2064   70.1261  -10.4491 O.2     1  UNL1       -0.2670
     23 H          16.9293   70.1371   -9.5316 H       1  UNL1        0.1734
     24 O          22.1718   71.3184   -1.1422 O.3     1  UNL1       -0.2703
     25 P          22.5781   70.5643    0.2213 P.3     1  UNL1        0.2208
     26 O          21.4644   69.4554    0.5731 O.3     1  UNL1       -0.4371
     27 O          23.8915   69.9059    0.0487 O.2     1  UNL1       -0.5170
     28 O          22.6674   71.6350    1.4206 O.3     1  UNL1       -0.2865
     29 C          21.8399   72.7976    1.4894 C.3     1  UNL1        0.2611
     30 C          22.6772   74.0403    1.1776 C.3     1  UNL1        0.1582
     31 C          23.7732   74.1861    2.2378 C.3     1  UNL1        0.1625
     32 C          23.1231   74.2566    3.6223 C.3     1  UNL1        0.1686
     33 C          22.2684   73.0052    3.8399 C.3     1  UNL1        0.1760
     34 O          24.5141   75.3845    1.9965 O.3     1  UNL1       -0.3801
     35 O          22.2973   75.4197    3.7035 O.3     1  UNL1       -0.3794
     36 O          21.2893   72.9128    2.8032 O.3     1  UNL1       -0.3263
     37 H          25.2268   75.5403    2.6313 H       1  UNL1        0.2105
     38 H          21.8521   75.5280    4.5556 H       1  UNL1        0.2105
     39 C          22.8508   74.6442   -1.1767 C.2     1  UNL1        0.2231
     40 C          23.4816   74.4981   -2.5366 C.3     1  UNL1        0.0946
     41 N          23.2911   73.8974   -0.1449 N.am    1  UNL1       -0.2994
     42 O          21.9455   75.4346   -1.0095 O.2     1  UNL1       -0.2751
     43 H          24.0142   73.2647   -0.2784 H       1  UNL1        0.1496
     44 C          21.5679   73.0960    5.1969 C.3     1  UNL1        0.1693
     45 O          22.4906   73.5713    6.1793 O.3     1  UNL1       -0.3794
     46 H          22.1139   73.6538    7.0661 H       1  UNL1        0.2105
@<TRIPOS>BOND
     1    29    30    1
     2    30    41    1
     3    30    31    1
     4    31    34    1
     5    31    32    1
     6    32    35    1
     7    32    33    1
     8    33    36    1
     9    33    44    1
    10    39    40    1
    11    39    42    2
    12    39    41   am
    13    41    43    1
    14    29    28    1
    15    34    37    1
    16    35    38    1
    17    29    36    1
    18    44    45    1
    19    45    46    1
    20    15     6    1
    21    15    16   ar
    22    16    21    2
    23    16    17   ar
    24    17    23    1
    25    17    18   ar
    26    18    19   ar
    27    19    20   ar
    28    15    20   ar
    29    18    22    2
    30     6     7    1
    31     6    11    1
    32     7     9    1
    33     7     8    1
    34     8    13    1
    35     9    10    1
    36     9    12    1
    37    10     5    1
    38    10    11    1
    39    12    14    1
    40     5     4    1
    41     4     1    1
    42     1     2    1
    43     1    24    1
    44     1     3    2
    45    24    25    1
    46    28    25    1
    47    25    26    1
    48    25    27    2
@<TRIPOS>MOLECULE
UD2
 46 48 0 0 0
SMALL
GASTEIGER

@<TRIPOS>ATOM
      1 P          21.8069   70.7796   -0.3541 P.3     1  UNL1        0.2189
      2 O          21.5803   69.3927    0.4311 O.3     1  UNL1       -0.4371
      3 O          22.9933   70.6631   -1.2303 O.2     1  UNL1       -0.5170
      4 O          20.5087   71.1077   -1.2490 O.3     1  UNL1       -0.3112
      5 C          20.5919   71.6130   -2.5829 C.3     1  UNL1        0.1811
      6 C          18.1531   71.2435   -5.2007 C.3     1  UNL1        0.2383
      7 C          18.0714   69.9178   -4.4020 C.3     1  UNL1        0.1895
      8 O          16.7487   69.3787   -4.4424 O.3     1  UNL1       -0.3779
      9 C          18.4367   70.3781   -2.9694 C.3     1  UNL1        0.1713
     10 C          19.1859   71.7076   -3.1806 C.3     1  UNL1        0.1764
     11 O          19.2711   71.9303   -4.5972 O.3     1  UNL1       -0.3308
     12 O          17.2540   70.5874   -2.1959 O.3     1  UNL1       -0.3794
     13 H          16.6471   68.5486   -3.9574 H       1  UNL1        0.2106
     14 H          16.7127   69.7947   -2.0812 H       1  UNL1        0.2105
     15 N          18.4143   70.9772   -6.6169 N.ar    1  UNL1       -0.2551
     16 C          17.3837   70.8252   -7.4676 C.ar    1  UNL1        0.3323
     17 N          17.5943   70.5795   -8.7743 N.ar    1  UNL1       -0.2743
     18 C          18.8514   70.4833   -9.2528 C.ar    1  UNL1        0.2626
     19 C          19.9457   70.6422   -8.3688 C.ar    1  UNL1        0.0795
     20 C          19.7053   70.8920   -7.0644 C.ar    1  UNL1        0.0869
     21 O          16.2449   70.9096   -7.0501 O.2     1  UNL1       -0.2464
     22 O          19.0434   70.2614  -10.4353 O.2     1  UNL1       -0.2670
     23 H          16.8399   70.4714   -9.3736 H       1  UNL1        0.1734
     24 O          22.0389   71.9668    0.7090 O.3     1  UNL1       -0.2703
     25 P          21.5807   73.5088    0.7803 P.3     1  UNL1        0.2208
     26 O          22.4008   74.3629   -0.3113 O.3     1  UNL1       -0.4371
     27 O          20.1323   73.6070    0.4959 O.2     1  UNL1       -0.5170
     28 O          21.8796   74.0899    2.2519 O.3     1  UNL1       -0.2865
     29 C          22.7431   73.4385    3.1855 C.3     1  UNL1        0.2611
     30 C          22.2835   73.7518    4.6115 C.3     1  UNL1        0.1582
     31 C          22.3907   75.2605    4.8533 C.3     1  UNL1        0.1625
     32 C          23.8328   75.7066    4.5970 C.3     1  UNL1        0.1686
     33 C          24.2326   75.3180    3.1712 C.3     1  UNL1        0.1760
     34 O          22.0334   75.5535    6.2060 O.3     1  UNL1       -0.3801
     35 O          24.7043   75.0649    5.5297 O.3     1  UNL1       -0.3794
     36 O          24.0808   73.9070    3.0035 O.3     1  UNL1       -0.3263
     37 H          22.0782   76.4934    6.4295 H       1  UNL1        0.2105
     38 H          25.6365   75.3013    5.4249 H       1  UNL1        0.2105
     39 C          19.8888   74.2004    4.5686 C.2     1  UNL1        0.2231
     40 C          18.4580   73.7636    4.7432 C.3     1  UNL1        0.0946
     41 N          20.8920   73.3261    4.7817 N.am    1  UNL1       -0.2994
     42 O          20.1390   75.3401    4.2358 O.2     1  UNL1       -0.2751
     43 H          20.6925   72.4152    5.0487 H       1  UNL1        0.1496
     44 C          25.6920   75.7068    2.9270 C.3     1  UNL1        0.1693
     45 O          26.0004   76.8904    3.6662 O.3     1  UNL1       -0.3794
     46 H          26.9115   77.1958    3.5586 H       1  UNL1        0.2105
@<TRIPOS>BOND
     1    29    30    1
     2    30    41    1
     3    30    31    1
     4    31    34    1
     5    31    32    1
     6    32    35    1
     7    32    33    1
     8    33    36    1
     9    33    44    1
    10    39    40    1
    11    39    42    2
    12    39    41   am
    13    41    43    1
    14    29    28    1
    15    34    37    1
    16    35    38    1
    17    29    36    1
    18    44    45    1
    19    45    46    1
    20    15     6    1
    21    15    16   ar
    22    16    21    2
    23    16    17   ar
    24    17    23    1
    25    17    18   ar
    26    18    19   ar
    27    19    20   ar
    28    15    20   ar
    29    18    22    2
    30     6     7    1
    31     6    11    1
    32     7     9    1
    33     7     8    1
    34     8    13    1
    35     9    10    1
    36     9    12    1
    37    10     5    1
    38    10    11    1
    39    12    14    1
    40     5     4    1
    41     4     1    1
    42     1     2    1
    43     1    24    1
    44     1     3    2
    45    24    25    1
    46    28    25    1
    47    25    26    1
    48    25    27    2
@<TRIPOS>MOLECULE
UD2
 46 48 0 0 0
SMALL
GASTEIGER

@<TRIPOS>ATOM
      1 P          22.9572   72.2029   -3.3250 P.3     1  UNL1        0.2189
      2 O          23.4707   70.6777   -3.2865 O.3     1  UNL1       -0.4371
      3 O          23.6686   72.9367   -4.3947 O.2     1  UNL1       -0.5170
      4 O          21.3738   72.2286   -3.6179 O.3     1  UNL1       -0.3112
      5 C          20.3974   71.8488   -2.6463 C.3     1  UNL1        0.1811
      6 C          18.0545   71.3028   -5.3201 C.3     1  UNL1        0.2383
      7 C          18.0028   69.9986   -4.4843 C.3     1  UNL1        0.1895
      8 O          16.7049   69.4043   -4.5461 O.3     1  UNL1       -0.3779
      9 C          18.3065   70.5151   -3.0565 C.3     1  UNL1        0.1713
     10 C          19.0072   71.8677   -3.2865 C.3     1  UNL1        0.1764
     11 O          19.1253   72.0525   -4.7061 O.3     1  UNL1       -0.3308
     12 O          17.0939   70.6976   -2.3237 O.3     1  UNL1       -0.3794
     13 H          16.6226   68.5851   -4.0393 H       1  UNL1        0.2106
     14 H          16.5820   69.8869   -2.2005 H       1  UNL1        0.2105
     15 N          18.3682   71.0064   -6.7197 N.ar    1  UNL1       -0.2551
     16 C          17.3714   70.7603   -7.5883 C.ar    1  UNL1        0.3323
     17 N          17.6305   70.4849   -8.8803 N.ar    1  UNL1       -0.2743
     18 C          18.9031   70.4536   -9.3256 C.ar    1  UNL1        0.2626
     19 C          19.9621   70.7118   -8.4223 C.ar    1  UNL1        0.0795
     20 C          19.6730   70.9892   -7.1335 C.ar    1  UNL1        0.0869
     21 O          16.2192   70.7854   -7.2009 O.2     1  UNL1       -0.2464
     22 O          19.1390   70.2049  -10.4948 O.2     1  UNL1       -0.2670
     23 H          16.9000   70.3086   -9.4930 H       1  UNL1        0.1734
     24 O          23.2512   72.9044   -1.9056 O.3     1  UNL1       -0.2703
     25 P          23.3043   74.4337   -1.4041 P.3     1  UNL1        0.2208
     26 O          24.7350   75.0713   -1.7785 O.3     1  UNL1       -0.4371
     27 O          22.2315   75.2077   -2.0662 O.2     1  UNL1       -0.5170
     28 O          23.0955   74.4827    0.1917 O.3     1  UNL1       -0.2865
     29 C          21.8280   74.2751    0.8177 C.3     1  UNL1        0.2611
     30 C          21.9756   74.4269    2.3335 C.3     1  UNL1        0.1582
     31 C          22.9335   73.3513    2.8549 C.3     1  UNL1        0.1625
     32 C          22.3995   71.9720    2.4589 C.3     1  UNL1        0.1686
     33 C          22.2356   71.9148    0.9378 C.3     1  UNL1        0.1760
     34 O          23.0201   73.4391    4.2790 O.3     1  UNL1       -0.3801
     35 O          21.1341   71.7521    3.0847 O.3     1  UNL1       -0.3794
     36 O          21.3575   72.9600    0.5152 O.3     1  UNL1       -0.3263
     37 H          23.6118   72.7862    4.6776 H       1  UNL1        0.2105
     38 H          20.7354   70.8954    2.8769 H       1  UNL1        0.2105
     39 C          21.8102   76.6045    3.4145 C.2     1  UNL1        0.2231
     40 C          22.3637   77.9687    3.7326 C.3     1  UNL1        0.0946
     41 N          22.5145   75.7538    2.6423 N.am    1  UNL1       -0.2994
     42 O          20.7295   76.2707    3.8536 O.2     1  UNL1       -0.2751
     43 H          23.3782   76.0207    2.2902 H       1  UNL1        0.1496
     44 C          21.6460   70.5606    0.5391 C.3     1  UNL1        0.1693
     45 O          22.4597   69.5116    1.0683 O.3     1  UNL1       -0.3794
     46 H          22.1448   68.6228    0.8542 H       1  UNL1        0.2105
@<TRIPOS>BOND
     1    29    30    1
     2    30    41    1
     3    30    31    1
     4    31    34    1
     5    31    32    1
     6    32    35    1
     7    32    33    1
     8    33    36    1
     9    33    44    1
    10    39    40    1
    11    39    42    2
    12    39    41   am
    13    41    43    1
    14    29    28    1
    15    34    37    1
    16    35    38    1
    17    29    36    1
    18    44    45    1
    19    45    46    1
    20    15     6    1
    21    15    16   ar
    22    16    21    2
    23    16    17   ar
    24    17    23    1
    25    17    18   ar
    26    18    19   ar
    27    19    20   ar
    28    15    20   ar
    29    18    22    2
    30     6     7    1
    31     6    11    1
    32     7     9    1
    33     7     8    1
    34     8    13    1
    35     9    10    1
    36     9    12    1
    37    10     5    1
    38    10    11    1
    39    12    14    1
    40     5     4    1
    41     4     1    1
    42     1     2    1
    43     1    24    1
    44     1     3    2
    45    24    25    1
    46    28    25    1
    47    25    26    1
    48    25    27    2
@<TRIPOS>MOLECULE
UD2
 46 48 0 0 0
SMALL
GASTEIGER

@<TRIPOS>ATOM
      1 P          21.8610   70.7467   -0.6070 P.3     1  UNL1        0.2189
      2 O          21.6049   69.5385    0.4256 O.3     1  UNL1       -0.4371
      3 O          22.9539   70.3804   -1.5345 O.2     1  UNL1       -0.5170
      4 O          20.5161   71.0286   -1.4470 O.3     1  UNL1       -0.3112
      5 C          20.4813   71.8760   -2.5969 C.3     1  UNL1        0.1811
      6 C          18.0948   71.2750   -5.2199 C.3     1  UNL1        0.2383
      7 C          18.1065   69.9627   -4.3954 C.3     1  UNL1        0.1895
      8 O          16.8279   69.3257   -4.4323 O.3     1  UNL1       -0.3779
      9 C          18.4266   70.4766   -2.9704 C.3     1  UNL1        0.1713
     10 C          19.0763   71.8539   -3.2040 C.3     1  UNL1        0.1764
     11 O          19.1543   72.0548   -4.6242 O.3     1  UNL1       -0.3308
     12 O          17.2264   70.6121   -2.2075 O.3     1  UNL1       -0.3794
     13 H          16.7850   68.5000   -3.9314 H       1  UNL1        0.2106
     14 H          16.7449   69.7837   -2.0800 H       1  UNL1        0.2105
     15 N          18.3848   71.0014   -6.6292 N.ar    1  UNL1       -0.2551
     16 C          17.3730   70.7760   -7.4861 C.ar    1  UNL1        0.3323
     17 N          17.6102   70.5218   -8.7866 N.ar    1  UNL1       -0.2743
     18 C          18.8754   70.4912   -9.2524 C.ar    1  UNL1        0.2626
     19 C          19.9500   70.7278   -8.3616 C.ar    1  UNL1        0.0795
     20 C          19.6828   70.9842   -7.0638 C.ar    1  UNL1        0.0869
     21 O          16.2272   70.8007   -7.0801 O.2     1  UNL1       -0.2464
     22 O          19.0915   70.2617  -10.4293 O.2     1  UNL1       -0.2670
     23 H          16.8692   70.3603   -9.3907 H       1  UNL1        0.1734
     24 O          22.2710   72.0729    0.2092 O.3     1  UNL1       -0.2703
     25 P          21.6852   72.8060    1.5178 P.3     1  UNL1        0.2208
     26 O          20.6190   73.9276    1.0719 O.3     1  UNL1       -0.4371
     27 O          21.0188   71.8098    2.3849 O.2     1  UNL1       -0.5170
     28 O          22.8904   73.5022    2.3275 O.3     1  UNL1       -0.2865
     29 C          22.8126   74.8298    2.8497 C.3     1  UNL1        0.2611
     30 C          24.2019   75.2820    3.3058 C.3     1  UNL1        0.1582
     31 C          24.6825   74.3654    4.4351 C.3     1  UNL1        0.1625
     32 C          23.6593   74.3963    5.5736 C.3     1  UNL1        0.1686
     33 C          22.2905   73.9781    5.0300 C.3     1  UNL1        0.1760
     34 O          25.9474   74.8249    4.9170 O.3     1  UNL1       -0.3801
     35 O          23.5780   75.7193    6.1070 O.3     1  UNL1       -0.3794
     36 O          21.9165   74.8517    3.9627 O.3     1  UNL1       -0.3263
     37 H          26.3126   74.2892    5.6346 H       1  UNL1        0.2105
     38 H          22.9463   75.8130    6.8337 H       1  UNL1        0.2105
     39 C          26.0552   76.1717    1.9976 C.2     1  UNL1        0.2231
     40 C          27.0162   76.0912    0.8406 C.3     1  UNL1        0.0946
     41 N          25.1362   75.2031    2.1800 N.am    1  UNL1       -0.2994
     42 O          26.1081   77.1091    2.7662 O.2     1  UNL1       -0.2751
     43 H          25.0930   74.4540    1.5651 H       1  UNL1        0.1496
     44 C          21.2500   74.0640    6.1482 C.3     1  UNL1        0.1693
     45 O          20.0556   73.3932    5.7409 O.3     1  UNL1       -0.3794
     46 H          19.3505   73.4078    6.4026 H       1  UNL1        0.2105
@<TRIPOS>BOND
     1    29    30    1
     2    30    41    1
     3    30    31    1
     4    31    34    1
     5    31    32    1
     6    32    35    1
     7    32    33    1
     8    33    36    1
     9    33    44    1
    10    39    40    1
    11    39    42    2
    12    39    41   am
    13    41    43    1
    14    29    28    1
    15    34    37    1
    16    35    38    1
    17    29    36    1
    18    44    45    1
    19    45    46    1
    20    15     6    1
    21    15    16   ar
    22    16    21    2
    23    16    17   ar
    24    17    23    1
    25    17    18   ar
    26    18    19   ar
    27    19    20   ar
    28    15    20   ar
    29    18    22    2
    30     6     7    1
    31     6    11    1
    32     7     9    1
    33     7     8    1
    34     8    13    1
    35     9    10    1
    36     9    12    1
    37    10     5    1
    38    10    11    1
    39    12    14    1
    40     5     4    1
    41     4     1    1
    42     1     2    1
    43     1    24    1
    44     1     3    2
    45    24    25    1
    46    28    25    1
    47    25    26    1
    48    25    27    2
@<TRIPOS>MOLECULE
UD2
 46 48 0 0 0
SMALL
GASTEIGER

@<TRIPOS>ATOM
      1 P          22.9291   72.2698   -3.1992 P.3     1  UNL1        0.2189
      2 O          23.4453   70.7460   -3.1455 O.3     1  UNL1       -0.4371
      3 O          23.6532   72.9994   -4.2633 O.2     1  UNL1       -0.5170
      4 O          21.3497   72.2904   -3.5136 O.3     1  UNL1       -0.3112
      5 C          20.3681   71.8068   -2.5949 C.3     1  UNL1        0.1811
      6 C          18.0371   71.3290   -5.2922 C.3     1  UNL1        0.2383
      7 C          17.9401   70.0264   -4.4579 C.3     1  UNL1        0.1895
      8 O          16.6264   69.4693   -4.5330 O.3     1  UNL1       -0.3779
      9 C          18.2441   70.5333   -3.0268 C.3     1  UNL1        0.1713
     10 C          18.9853   71.8656   -3.2488 C.3     1  UNL1        0.1764
     11 O          19.1227   72.0476   -4.6670 O.3     1  UNL1       -0.3308
     12 O          17.0300   70.7500   -2.3059 O.3     1  UNL1       -0.3794
     13 H          16.5157   68.6526   -4.0276 H       1  UNL1        0.2106
     14 H          16.4940   69.9542   -2.1884 H       1  UNL1        0.2105
     15 N          18.3561   71.0245   -6.6888 N.ar    1  UNL1       -0.2551
     16 C          17.3613   70.8111   -7.5683 C.ar    1  UNL1        0.3323
     17 N          17.6253   70.5292   -8.8579 N.ar    1  UNL1       -0.2743
     18 C          18.9008   70.4579   -9.2897 C.ar    1  UNL1        0.2626
     19 C          19.9579   70.6813   -8.3749 C.ar    1  UNL1        0.0795
     20 C          19.6640   70.9663   -7.0888 C.ar    1  UNL1        0.0869
     21 O          16.2064   70.8724   -7.1930 O.2     1  UNL1       -0.2464
     22 O          19.1411   70.2032  -10.4567 O.2     1  UNL1       -0.2670
     23 H          16.8961   70.3769   -9.4786 H       1  UNL1        0.1734
     24 O          23.2023   72.9797   -1.7798 O.3     1  UNL1       -0.2703
     25 P          23.0176   74.4806   -1.2266 P.3     1  UNL1        0.2208
     26 O          24.4125   75.2751   -1.3555 O.3     1  UNL1       -0.4371
     27 O          21.9800   75.1749   -2.0202 O.2     1  UNL1       -0.5170
     28 O          22.5684   74.4314    0.3189 O.3     1  UNL1       -0.2865
     29 C          23.3351   73.7779    1.3319 C.3     1  UNL1        0.2611
     30 C          22.5044   72.6545    1.9569 C.3     1  UNL1        0.1582
     31 C          21.2668   73.2588    2.6275 C.3     1  UNL1        0.1625
     32 C          21.7146   74.2943    3.6626 C.3     1  UNL1        0.1686
     33 C          22.5760   75.3548    2.9716 C.3     1  UNL1        0.1760
     34 O          20.5233   72.2250    3.2769 O.3     1  UNL1       -0.3801
     35 O          22.4779   73.6496    4.6839 O.3     1  UNL1       -0.3794
     36 O          23.6927   74.7232    2.3423 O.3     1  UNL1       -0.3263
     37 H          19.7239   72.5369    3.7229 H       1  UNL1        0.2105
     38 H          22.7958   74.2475    5.3749 H       1  UNL1        0.2105
     39 C          22.5297   70.4435    0.9330 C.2     1  UNL1        0.2231
     40 C          22.1001   69.4779   -0.1402 C.3     1  UNL1        0.0946
     41 N          22.0863   71.7159    0.9125 N.am    1  UNL1       -0.2994
     42 O          23.2754   70.0760    1.8168 O.2     1  UNL1       -0.2751
     43 H          21.4909   72.0104    0.2056 H       1  UNL1        0.1496
     44 C          23.0769   76.3605    4.0099 C.3     1  UNL1        0.1693
     45 O          24.2306   75.8326    4.6675 O.3     1  UNL1       -0.3794
     46 H          24.6028   76.4184    5.3408 H       1  UNL1        0.2105
@<TRIPOS>BOND
     1    29    30    1
     2    30    41    1
     3    30    31    1
     4    31    34    1
     5    31    32    1
     6    32    35    1
     7    32    33    1
     8    33    36    1
     9    33    44    1
    10    39    40    1
    11    39    42    2
    12    39    41   am
    13    41    43    1
    14    29    28    1
    15    34    37    1
    16    35    38    1
    17    29    36    1
    18    44    45    1
    19    45    46    1
    20    15     6    1
    21    15    16   ar
    22    16    21    2
    23    16    17   ar
    24    17    23    1
    25    17    18   ar
    26    18    19   ar
    27    19    20   ar
    28    15    20   ar
    29    18    22    2
    30     6     7    1
    31     6    11    1
    32     7     9    1
    33     7     8    1
    34     8    13    1
    35     9    10    1
    36     9    12    1
    37    10     5    1
    38    10    11    1
    39    12    14    1
    40     5     4    1
    41     4     1    1
    42     1     2    1
    43     1    24    1
    44     1     3    2
    45    24    25    1
    46    28    25    1
    47    25    26    1
    48    25    27    2
@<TRIPOS>MOLECULE
UD2
 46 48 0 0 0
SMALL
GASTEIGER

@<TRIPOS>ATOM
      1 P          21.7750   71.2895   -2.8375 P.3     1  UNL1        0.2189
      2 O          20.5973   72.3345   -2.5022 O.3     1  UNL1       -0.4371
      3 O          21.1889   69.9653   -3.1405 O.2     1  UNL1       -0.5170
      4 O          22.6088   71.8119   -4.1125 O.3     1  UNL1       -0.3112
      5 C          22.7819   73.1979   -4.4131 C.3     1  UNL1        0.1811
      6 C          20.0044   72.9633   -6.6863 C.3     1  UNL1        0.2383
      7 C          19.6609   74.1685   -5.7744 C.3     1  UNL1        0.1895
      8 O          18.8867   75.1390   -6.4818 O.3     1  UNL1       -0.3779
      9 C          21.0638   74.7258   -5.4296 C.3     1  UNL1        0.1713
     10 C          22.0141   73.5419   -5.6919 C.3     1  UNL1        0.1764
     11 O          21.2051   72.4243   -6.0917 O.3     1  UNL1       -0.3308
     12 O          21.3871   75.8256   -6.2821 O.3     1  UNL1       -0.3794
     13 H          18.6462   75.9120   -5.9532 H       1  UNL1        0.2106
     14 H          20.7847   76.5773   -6.2011 H       1  UNL1        0.2105
     15 N          18.9258   71.9729   -6.6603 N.ar    1  UNL1       -0.2551
     16 C          18.2380   71.7070   -7.7850 C.ar    1  UNL1        0.3323
     17 N          17.2417   70.8017   -7.7901 N.ar    1  UNL1       -0.2743
     18 C          16.9180   70.1423   -6.6592 C.ar    1  UNL1        0.2626
     19 C          17.6345   70.4116   -5.4682 C.ar    1  UNL1        0.0795
     20 C          18.6313   71.3210   -5.4931 C.ar    1  UNL1        0.0869
     21 O          18.5191   72.2938   -8.8121 O.2     1  UNL1       -0.2464
     22 O          16.0167   69.3224   -6.6625 O.2     1  UNL1       -0.2670
     23 H          16.7551   70.6229   -8.6095 H       1  UNL1        0.1734
     24 O          22.7587   71.1638   -1.5687 O.3     1  UNL1       -0.2703
     25 P          22.5795   70.6158   -0.0653 P.3     1  UNL1        0.2208
     26 O          21.2071   69.7797    0.0406 O.3     1  UNL1       -0.4371
     27 O          23.7191   69.7378    0.2792 O.2     1  UNL1       -0.5170
     28 O          22.5312   71.8591    0.9568 O.3     1  UNL1       -0.2865
     29 C          21.7632   73.0387    0.7120 C.3     1  UNL1        0.2611
     30 C          22.6906   74.2560    0.6846 C.3     1  UNL1        0.1582
     31 C          23.3564   74.4107    2.0554 C.3     1  UNL1        0.1625
     32 C          22.2703   74.5325    3.1277 C.3     1  UNL1        0.1686
     33 C          21.3588   73.3041    3.0609 C.3     1  UNL1        0.1760
     34 O          24.1678   75.5875    2.0618 O.3     1  UNL1       -0.3801
     35 O          21.4996   75.7129    2.8952 O.3     1  UNL1       -0.3794
     36 O          20.7960   73.2013    1.7515 O.3     1  UNL1       -0.3263
     37 H          24.6213   75.7475    2.9008 H       1  UNL1        0.2105
     38 H          20.7906   75.8536    3.5382 H       1  UNL1        0.2105
     39 C          24.0784   75.0915   -1.1357 C.2     1  UNL1        0.2231
     40 C          25.1363   74.8953   -2.1898 C.3     1  UNL1        0.0946
     41 N          23.7195   74.0643   -0.3406 N.am    1  UNL1       -0.2994
     42 O          23.5487   76.1749   -1.0019 O.2     1  UNL1       -0.2751
     43 H          24.1420   73.1977   -0.4479 H       1  UNL1        0.1496
     44 C          20.2354   73.4464    4.0895 C.3     1  UNL1        0.1693
     45 O          20.7694   73.2826    5.4050 O.3     1  UNL1       -0.3794
     46 H          20.1117   73.3603    6.1095 H       1  UNL1        0.2105
@<TRIPOS>BOND
     1    29    30    1
     2    30    41    1
     3    30    31    1
     4    31    34    1
     5    31    32    1
     6    32    35    1
     7    32    33    1
     8    33    36    1
     9    33    44    1
    10    39    40    1
    11    39    42    2
    12    39    41   am
    13    41    43    1
    14    29    28    1
    15    34    37    1
    16    35    38    1
    17    29    36    1
    18    44    45    1
    19    45    46    1
    20    15     6    1
    21    15    16   ar
    22    16    21    2
    23    16    17   ar
    24    17    23    1
    25    17    18   ar
    26    18    19   ar
    27    19    20   ar
    28    15    20   ar
    29    18    22    2
    30     6     7    1
    31     6    11    1
    32     7     9    1
    33     7     8    1
    34     8    13    1
    35     9    10    1
    36     9    12    1
    37    10     5    1
    38    10    11    1
    39    12    14    1
    40     5     4    1
    41     4     1    1
    42     1     2    1
    43     1    24    1
    44     1     3    2
    45    24    25    1
    46    28    25    1
    47    25    26    1
    48    25    27    2
@<TRIPOS>MOLECULE
UD2
 46 48 0 0 0
SMALL
GASTEIGER

@<TRIPOS>ATOM
      1 P          19.9471   72.2102   -3.8873 P.3     1  UNL1        0.2189
      2 O          19.4459   70.7329   -3.4901 O.3     1  UNL1       -0.4371
      3 O          19.1881   72.6898   -5.0632 O.2     1  UNL1       -0.5170
      4 O          19.7051   73.2100   -2.6481 O.3     1  UNL1       -0.3112
      5 C          19.8077   72.7964   -1.2843 C.3     1  UNL1        0.1811
      6 C          22.5631   72.5530    1.0146 C.3     1  UNL1        0.2383
      7 C          22.1197   71.0863    0.7810 C.3     1  UNL1        0.1895
      8 O          23.2303   70.1940    0.8913 O.3     1  UNL1       -0.3779
      9 C          21.5917   71.1340   -0.6738 C.3     1  UNL1        0.1713
     10 C          21.2828   72.6241   -0.9136 C.3     1  UNL1        0.1764
     11 O          21.5639   73.3217    0.3102 O.3     1  UNL1       -0.3308
     12 O          22.5943   70.6778   -1.5835 O.3     1  UNL1       -0.3794
     13 H          23.0033   69.2644    0.7537 H       1  UNL1        0.2106
     14 H          22.8698   69.7625   -1.4397 H       1  UNL1        0.2105
     15 N          22.5495   72.8746    2.4434 N.ar    1  UNL1       -0.2551
     16 C          21.4851   72.5360    3.1926 C.ar    1  UNL1        0.3323
     17 N          21.4454   72.8194    4.5080 N.ar    1  UNL1       -0.2743
     18 C          22.4813   73.4499    5.0980 C.ar    1  UNL1        0.2626
     19 C          23.6086   73.8111    4.3216 C.ar    1  UNL1        0.0795
     20 C          23.6232   73.5109    3.0059 C.ar    1  UNL1        0.0869
     21 O          20.5440   71.9670    2.6740 O.2     1  UNL1       -0.2464
     22 O          22.4468   73.7065    6.2886 O.2     1  UNL1       -0.2670
     23 H          20.6698   72.5693    5.0333 H       1  UNL1        0.1734
     24 O          21.5172   72.1672   -4.2425 O.3     1  UNL1       -0.2703
     25 P          22.6335   73.2959   -4.5128 P.3     1  UNL1        0.2208
     26 O          22.1985   74.6653   -3.7854 O.3     1  UNL1       -0.4371
     27 O          23.9342   72.8429   -3.9730 O.2     1  UNL1       -0.5170
     28 O          22.7682   73.5487   -6.0973 O.3     1  UNL1       -0.2865
     29 C          21.7973   74.2724   -6.8555 C.3     1  UNL1        0.2611
     30 C          21.7611   73.7330   -8.2874 C.3     1  UNL1        0.1582
     31 C          23.1265   73.9591   -8.9437 C.3     1  UNL1        0.1625
     32 C          23.4639   75.4518   -8.8941 C.3     1  UNL1        0.1686
     33 C          23.4345   75.9251   -7.4384 C.3     1  UNL1        0.1760
     34 O          23.0795   73.5251  -10.3048 O.3     1  UNL1       -0.3801
     35 O          22.5015   76.1845   -9.6546 O.3     1  UNL1       -0.3794
     36 O          22.1474   75.6578   -6.8782 O.3     1  UNL1       -0.3263
     37 H          23.9128   73.6384  -10.7824 H       1  UNL1        0.2105
     38 H          22.6534   77.1399   -9.6665 H       1  UNL1        0.2105
     39 C          20.3014   71.8442   -8.7768 C.2     1  UNL1        0.2231
     40 C          19.9924   70.3702   -8.7520 C.3     1  UNL1        0.0946
     41 N          21.4611   72.2992   -8.2627 N.am    1  UNL1       -0.2994
     42 O          19.5061   72.6228   -9.2598 O.2     1  UNL1       -0.2751
     43 H          22.0968   71.6771   -7.8755 H       1  UNL1        0.1496
     44 C          23.7120   77.4286   -7.3855 C.3     1  UNL1        0.1693
     45 O          25.1090   77.6491   -7.1808 O.3     1  UNL1       -0.3794
     46 H          25.3582   78.5823   -7.1367 H       1  UNL1        0.2105
@<TRIPOS>BOND
     1    29    30    1
     2    30    41    1
     3    30    31    1
     4    31    34    1
     5    31    32    1
     6    32    35    1
     7    32    33    1
     8    33    36    1
     9    33    44    1
    10    39    40    1
    11    39    42    2
    12    39    41   am
    13    41    43    1
    14    29    28    1
    15    34    37    1
    16    35    38    1
    17    29    36    1
    18    44    45    1
    19    45    46    1
    20    15     6    1
    21    15    16   ar
    22    16    21    2
    23    16    17   ar
    24    17    23    1
    25    17    18   ar
    26    18    19   ar
    27    19    20   ar
    28    15    20   ar
    29    18    22    2
    30     6     7    1
    31     6    11    1
    32     7     9    1
    33     7     8    1
    34     8    13    1
    35     9    10    1
    36     9    12    1
    37    10     5    1
    38    10    11    1
    39    12    14    1
    40     5     4    1
    41     4     1    1
    42     1     2    1
    43     1    24    1
    44     1     3    2
    45    24    25    1
    46    28    25    1
    47    25    26    1
    48    25    27    2
@<TRIPOS>MOLECULE
UD2
 46 48 0 0 0
SMALL
GASTEIGER

@<TRIPOS>ATOM
      1 P          22.2004   72.0525   -3.7900 P.3     1  UNL1        0.2189
      2 O          23.5725   71.2879   -3.4377 O.3     1  UNL1       -0.4371
      3 O          21.0714   71.0990   -3.7191 O.2     1  UNL1       -0.5170
      4 O          21.9636   73.2443   -2.7330 O.3     1  UNL1       -0.3112
      5 C          21.5092   73.0195   -1.3972 C.3     1  UNL1        0.1811
      6 C          23.1804   72.3434    1.7151 C.3     1  UNL1        0.2383
      7 C          22.4651   71.0151    1.3603 C.3     1  UNL1        0.1895
      8 O          23.1964   69.8931    1.8583 O.3     1  UNL1       -0.3779
      9 C          22.4799   71.0410   -0.1878 C.3     1  UNL1        0.1713
     10 C          22.6766   72.5285   -0.5375 C.3     1  UNL1        0.1764
     11 O          22.7130   73.2577    0.6996 O.3     1  UNL1       -0.3308
     12 O          23.5665   70.2609   -0.6894 O.3     1  UNL1       -0.3794
     13 H          22.7886   69.0388    1.6620 H       1  UNL1        0.2106
     14 H          23.5245   69.3258   -0.4483 H       1  UNL1        0.2105
     15 N          22.7821   72.8039    3.0472 N.ar    1  UNL1       -0.2551
     16 C          21.5509   72.5222    3.5091 C.ar    1  UNL1        0.3323
     17 N          21.1580   72.9329    4.7294 N.ar    1  UNL1       -0.2743
     18 C          22.0007   73.6365    5.5126 C.ar    1  UNL1        0.2626
     19 C          23.3001   73.9392    5.0394 C.ar    1  UNL1        0.0795
     20 C          23.6688   73.5112    3.8137 C.ar    1  UNL1        0.0869
     21 O          20.7806   71.8884    2.8139 O.2     1  UNL1       -0.2464
     22 O          21.6465   74.0085    6.6175 O.2     1  UNL1       -0.2670
     23 H          20.2663   72.7223    5.0466 H       1  UNL1        0.1734
     24 O          22.2934   72.6650   -5.2765 O.3     1  UNL1       -0.2703
     25 P          21.2862   73.5177   -6.1992 P.3     1  UNL1        0.2208
     26 O          20.9433   74.9129   -5.4715 O.3     1  UNL1       -0.4371
     27 O          21.9234   73.7876   -7.5067 O.2     1  UNL1       -0.5170
     28 O          19.9285   72.6821   -6.4256 O.3     1  UNL1       -0.2865
     29 C          18.7139   72.9669   -5.7293 C.3     1  UNL1        0.2611
     30 C          17.8167   71.7269   -5.7382 C.3     1  UNL1        0.1582
     31 C          17.4530   71.3808   -7.1854 C.3     1  UNL1        0.1625
     32 C          16.7763   72.5915   -7.8338 C.3     1  UNL1        0.1686
     33 C          17.7138   73.7985   -7.7442 C.3     1  UNL1        0.1760
     34 O          16.5558   70.2681   -7.1989 O.3     1  UNL1       -0.3801
     35 O          15.5569   72.8813   -7.1480 O.3     1  UNL1       -0.3794
     36 O          18.0374   74.0477   -6.3748 O.3     1  UNL1       -0.3263
     37 H          16.2837   69.9936   -8.0853 H       1  UNL1        0.2105
     38 H          15.0741   73.6395   -7.5059 H       1  UNL1        0.2105
     39 C          17.8843   69.7633   -4.2969 C.2     1  UNL1        0.2231
     40 C          18.6182   68.6060   -3.6718 C.3     1  UNL1        0.0946
     41 N          18.5314   70.6015   -5.1304 N.am    1  UNL1       -0.2994
     42 O          16.7098   69.9414   -4.0501 O.2     1  UNL1       -0.2751
     43 H          19.4707   70.4601   -5.3272 H       1  UNL1        0.1496
     44 C          17.0211   75.0272   -8.3366 C.3     1  UNL1        0.1693
     45 O          18.0058   75.9438   -8.8189 O.3     1  UNL1       -0.3794
     46 H          17.6375   76.7483   -9.2090 H       1  UNL1        0.2105
@<TRIPOS>BOND
     1    29    30    1
     2    30    41    1
     3    30    31    1
     4    31    34    1
     5    31    32    1
     6    32    35    1
     7    32    33    1
     8    33    36    1
     9    33    44    1
    10    39    40    1
    11    39    42    2
    12    39    41   am
    13    41    43    1
    14    29    28    1
    15    34    37    1
    16    35    38    1
    17    29    36    1
    18    44    45    1
    19    45    46    1
    20    15     6    1
    21    15    16   ar
    22    16    21    2
    23    16    17   ar
    24    17    23    1
    25    17    18   ar
    26    18    19   ar
    27    19    20   ar
    28    15    20   ar
    29    18    22    2
    30     6     7    1
    31     6    11    1
    32     7     9    1
    33     7     8    1
    34     8    13    1
    35     9    10    1
    36     9    12    1
    37    10     5    1
    38    10    11    1
    39    12    14    1
    40     5     4    1
    41     4     1    1
    42     1     2    1
    43     1    24    1
    44     1     3    2
    45    24    25    1
    46    28    25    1
    47    25    26    1
    48    25    27    2
@<TRIPOS>MOLECULE
UD2
 46 48 0 0 0
SMALL
GASTEIGER

@<TRIPOS>ATOM
      1 P          22.3744   71.0143   -2.4223 P.3     1  UNL1        0.2189
      2 O          23.6907   70.6452   -3.2722 O.3     1  UNL1       -0.4371
      3 O          21.9510   69.8377   -1.6316 O.2     1  UNL1       -0.5170
      4 O          22.7031   72.2385   -1.4289 O.3     1  UNL1       -0.3112
      5 C          22.4513   72.1879   -0.0233 C.3     1  UNL1        0.1811
      6 C          21.7189   74.7192    2.4247 C.3     1  UNL1        0.2383
      7 C          23.0915   75.1324    1.8355 C.3     1  UNL1        0.1895
      8 O          23.2490   76.5525    1.8566 O.3     1  UNL1       -0.3779
      9 C          22.9923   74.6092    0.3816 C.3     1  UNL1        0.1713
     10 C          21.8908   73.5339    0.4428 C.3     1  UNL1        0.1764
     11 O          21.4623   73.4376    1.8105 O.3     1  UNL1       -0.3308
     12 O          22.6132   75.6645   -0.5035 O.3     1  UNL1       -0.3794
     13 H          24.0927   76.8602    1.4987 H       1  UNL1        0.2106
     14 H          23.2431   76.3969   -0.5362 H       1  UNL1        0.2105
     15 N          21.8014   74.5867    3.8809 N.ar    1  UNL1       -0.2551
     16 C          20.6734   74.4750    4.6049 C.ar    1  UNL1        0.3323
     17 N          20.7194   74.3521    5.9446 N.ar    1  UNL1       -0.2743
     18 C          21.9064   74.3372    6.5845 C.ar    1  UNL1        0.2626
     19 C          23.1017   74.4529    5.8348 C.ar    1  UNL1        0.0795
     20 C          23.0260   74.5706    4.4924 C.ar    1  UNL1        0.0869
     21 O          19.5961   74.4866    4.0412 O.2     1  UNL1       -0.2464
     22 O          21.9495   74.2256    7.7970 O.2     1  UNL1       -0.2670
     23 H          19.8966   74.2738    6.4515 H       1  UNL1        0.1734
     24 O          21.1896   71.4416   -3.4257 O.3     1  UNL1       -0.2703
     25 P          21.0642   72.5252   -4.6102 P.3     1  UNL1        0.2208
     26 O          20.3334   73.8474   -4.0521 O.3     1  UNL1       -0.4371
     27 O          22.4143   72.8785   -5.1009 O.2     1  UNL1       -0.5170
     28 O          20.1997   71.9028   -5.8176 O.3     1  UNL1       -0.2865
     29 C          19.0553   72.5541   -6.3721 C.3     1  UNL1        0.2611
     30 C          17.7853   71.8305   -5.9182 C.3     1  UNL1        0.1582
     31 C          17.8075   70.3949   -6.4520 C.3     1  UNL1        0.1625
     32 C          17.9417   70.4306   -7.9768 C.3     1  UNL1        0.1686
     33 C          19.2061   71.2083   -8.3514 C.3     1  UNL1        0.1760
     34 O          16.5913   69.7341   -6.0949 O.3     1  UNL1       -0.3801
     35 O          16.7988   71.0753   -8.5419 O.3     1  UNL1       -0.3794
     36 O          19.1353   72.5242   -7.7987 O.3     1  UNL1       -0.3263
     37 H          16.5372   68.8184   -6.4009 H       1  UNL1        0.2105
     38 H          16.8168   71.1342   -9.5074 H       1  UNL1        0.2105
     39 C          16.5720   72.0655   -3.8181 C.2     1  UNL1        0.2231
     40 C          16.5160   72.0422   -2.3132 C.3     1  UNL1        0.0946
     41 N          17.7317   71.8078   -4.4543 N.am    1  UNL1       -0.2994
     42 O          15.5725   72.3165   -4.4586 O.2     1  UNL1       -0.2751
     43 H          18.5312   71.6081   -3.9425 H       1  UNL1        0.1496
     44 C          19.3157   71.2999   -9.8746 C.3     1  UNL1        0.1693
     45 O          18.4760   72.3536  -10.3509 O.3     1  UNL1       -0.3794
     46 H          18.4954   72.4694  -11.3107 H       1  UNL1        0.2105
@<TRIPOS>BOND
     1    29    30    1
     2    30    41    1
     3    30    31    1
     4    31    34    1
     5    31    32    1
     6    32    35    1
     7    32    33    1
     8    33    36    1
     9    33    44    1
    10    39    40    1
    11    39    42    2
    12    39    41   am
    13    41    43    1
    14    29    28    1
    15    34    37    1
    16    35    38    1
    17    29    36    1
    18    44    45    1
    19    45    46    1
    20    15     6    1
    21    15    16   ar
    22    16    21    2
    23    16    17   ar
    24    17    23    1
    25    17    18   ar
    26    18    19   ar
    27    19    20   ar
    28    15    20   ar
    29    18    22    2
    30     6     7    1
    31     6    11    1
    32     7     9    1
    33     7     8    1
    34     8    13    1
    35     9    10    1
    36     9    12    1
    37    10     5    1
    38    10    11    1
    39    12    14    1
    40     5     4    1
    41     4     1    1
    42     1     2    1
    43     1    24    1
    44     1     3    2
    45    24    25    1
    46    28    25    1
    47    25    26    1
    48    25    27    2
@<TRIPOS>MOLECULE
UD2
 46 48 0 0 0
SMALL
GASTEIGER

@<TRIPOS>ATOM
      1 P          21.6520   70.7888   -0.2698 P.3     1  UNL1        0.2189
      2 O          21.7437   69.4842    0.6689 O.3     1  UNL1       -0.4371
      3 O          23.0038   71.1447   -0.7542 O.2     1  UNL1       -0.5170
      4 O          20.6955   70.4784   -1.5277 O.3     1  UNL1       -0.3112
      5 C          20.7849   71.1866   -2.7654 C.3     1  UNL1        0.1811
      6 C          18.2778   71.0826   -5.3423 C.3     1  UNL1        0.2383
      7 C          18.1118   69.7418   -4.5827 C.3     1  UNL1        0.1895
      8 O          16.7520   69.3038   -4.6123 O.3     1  UNL1       -0.3779
      9 C          18.5367   70.1279   -3.1447 C.3     1  UNL1        0.1713
     10 C          19.3792   71.4042   -3.3308 C.3     1  UNL1        0.1764
     11 O          19.4548   71.6650   -4.7414 O.3     1  UNL1       -0.3308
     12 O          17.3874   70.3995   -2.3409 O.3     1  UNL1       -0.3794
     13 H          16.5975   68.4686   -4.1507 H       1  UNL1        0.2106
     14 H          16.7905   69.6460   -2.2393 H       1  UNL1        0.2105
     15 N          18.4924   70.8428   -6.7711 N.ar    1  UNL1       -0.2551
     16 C          17.4344   70.7126   -7.5912 C.ar    1  UNL1        0.3323
     17 N          17.6020   70.4915   -8.9085 N.ar    1  UNL1       -0.2743
     18 C          18.8427   70.3987   -9.4286 C.ar    1  UNL1        0.2626
     19 C          19.9654   70.5349   -8.5771 C.ar    1  UNL1        0.0795
     20 C          19.7679   70.7602   -7.2611 C.ar    1  UNL1        0.0869
     21 O          16.3099   70.7942   -7.1360 O.2     1  UNL1       -0.2464
     22 O          18.9958   70.1991  -10.6208 O.2     1  UNL1       -0.2670
     23 H          16.8283   70.3988   -9.4854 H       1  UNL1        0.1734
     24 O          21.0439   72.0170    0.5758 O.3     1  UNL1       -0.2703
     25 P          21.5068   72.7952    1.9073 P.3     1  UNL1        0.2208
     26 O          21.4842   71.7797    3.1571 O.3     1  UNL1       -0.4371
     27 O          22.8782   73.3179    1.7220 O.2     1  UNL1       -0.5170
     28 O          20.4994   74.0188    2.1913 O.3     1  UNL1       -0.2865
     29 C          20.9442   75.3593    2.4073 C.3     1  UNL1        0.2611
     30 C          20.4866   75.8333    3.7889 C.3     1  UNL1        0.1582
     31 C          18.9555   75.8380    3.8363 C.3     1  UNL1        0.1625
     32 C          18.4233   76.7295    2.7110 C.3     1  UNL1        0.1686
     33 C          18.9605   76.2207    1.3707 C.3     1  UNL1        0.1760
     34 O          18.5188   76.3492    5.0977 O.3     1  UNL1       -0.3801
     35 O          18.8580   78.0742    2.9209 O.3     1  UNL1       -0.3794
     36 O          20.3891   76.2124    1.4041 O.3     1  UNL1       -0.3263
     37 H          17.5574   76.3798    5.1976 H       1  UNL1        0.2105
     38 H          18.5572   78.6958    2.2433 H       1  UNL1        0.2105
     39 C          21.4987   75.4204    5.9667 C.2     1  UNL1        0.2231
     40 C          22.0321   74.4872    7.0218 C.3     1  UNL1        0.0946
     41 N          21.0055   74.9249    4.8146 N.am    1  UNL1       -0.2994
     42 O          21.5127   76.6192    6.1537 O.2     1  UNL1       -0.2751
     43 H          20.9950   73.9667    4.6642 H       1  UNL1        0.1496
     44 C          18.4817   77.1417    0.2469 C.3     1  UNL1        0.1693
     45 O          19.5716   77.4284   -0.6319 O.3     1  UNL1       -0.3794
     46 H          19.3403   78.0087   -1.3700 H       1  UNL1        0.2105
@<TRIPOS>BOND
     1    29    30    1
     2    30    41    1
     3    30    31    1
     4    31    34    1
     5    31    32    1
     6    32    35    1
     7    32    33    1
     8    33    36    1
     9    33    44    1
    10    39    40    1
    11    39    42    2
    12    39    41   am
    13    41    43    1
    14    29    28    1
    15    34    37    1
    16    35    38    1
    17    29    36    1
    18    44    45    1
    19    45    46    1
    20    15     6    1
    21    15    16   ar
    22    16    21    2
    23    16    17   ar
    24    17    23    1
    25    17    18   ar
    26    18    19   ar
    27    19    20   ar
    28    15    20   ar
    29    18    22    2
    30     6     7    1
    31     6    11    1
    32     7     9    1
    33     7     8    1
    34     8    13    1
    35     9    10    1
    36     9    12    1
    37    10     5    1
    38    10    11    1
    39    12    14    1
    40     5     4    1
    41     4     1    1
    42     1     2    1
    43     1    24    1
    44     1     3    2
    45    24    25    1
    46    28    25    1
    47    25    26    1
    48    25    27    2
@<TRIPOS>MOLECULE
UD2
 46 48 0 0 0
SMALL
GASTEIGER

@<TRIPOS>ATOM
      1 P          21.9410   70.8497   -0.4171 P.3     1  UNL1        0.2189
      2 O          21.3617   69.6722    0.5153 O.3     1  UNL1       -0.4371
      3 O          22.9577   70.2955   -1.3380 O.2     1  UNL1       -0.5170
      4 O          20.7393   71.4977   -1.2714 O.3     1  UNL1       -0.3112
      5 C          20.7718   71.6122   -2.6953 C.3     1  UNL1        0.1811
      6 C          18.2108   71.2618   -5.1963 C.3     1  UNL1        0.2383
      7 C          18.1413   69.9460   -4.3804 C.3     1  UNL1        0.1895
      8 O          16.8086   69.4311   -4.3554 O.3     1  UNL1       -0.3779
      9 C          18.5793   70.4137   -2.9709 C.3     1  UNL1        0.1713
     10 C          19.3422   71.7269   -3.2301 C.3     1  UNL1        0.1764
     11 O          19.3672   71.9338   -4.6513 O.3     1  UNL1       -0.3308
     12 O          17.4368   70.6527   -2.1472 O.3     1  UNL1       -0.3794
     13 H          16.7140   68.6080   -3.8573 H       1  UNL1        0.2106
     14 H          16.8870   69.8715   -1.9996 H       1  UNL1        0.2105
     15 N          18.4028   70.9765   -6.6200 N.ar    1  UNL1       -0.2551
     16 C          17.3323   70.8396   -7.4225 C.ar    1  UNL1        0.3323
     17 N          17.4791   70.5770   -8.7346 N.ar    1  UNL1       -0.2743
     18 C          18.7112   70.4483   -9.2673 C.ar    1  UNL1        0.2626
     19 C          19.8470   70.5909   -8.4344 C.ar    1  UNL1        0.0795
     20 C          19.6704   70.8583   -7.1233 C.ar    1  UNL1        0.0869
     21 O          16.2152   70.9533   -6.9558 O.2     1  UNL1       -0.2464
     22 O          18.8455   70.2110  -10.4548 O.2     1  UNL1       -0.2670
     23 H          16.6965   70.4801   -9.2988 H       1  UNL1        0.1734
     24 O          22.6143   71.9840    0.5065 O.3     1  UNL1       -0.2703
     25 P          22.1639   72.7404    1.8549 P.3     1  UNL1        0.2208
     26 O          21.0359   71.8707    2.6063 O.3     1  UNL1       -0.4371
     27 O          23.3347   72.9027    2.7444 O.2     1  UNL1       -0.5170
     28 O          21.5666   74.1889    1.4835 O.3     1  UNL1       -0.2865
     29 C          21.3771   75.2239    2.4500 C.3     1  UNL1        0.2611
     30 C          21.6562   74.6729    3.8505 C.3     1  UNL1        0.1582
     31 C          20.6528   73.5578    4.1604 C.3     1  UNL1        0.1625
     32 C          19.2320   74.1128    4.0275 C.3     1  UNL1        0.1686
     33 C          19.0463   74.6855    2.6198 C.3     1  UNL1        0.1760
     34 O          20.8590   73.0874    5.4944 O.3     1  UNL1       -0.3801
     35 O          19.0302   75.1453    4.9942 O.3     1  UNL1       -0.3794
     36 O          20.0296   75.6953    2.3846 O.3     1  UNL1       -0.3263
     37 H          20.2569   72.3782    5.7583 H       1  UNL1        0.2105
     38 H          18.1491   75.5439    4.9668 H       1  UNL1        0.2105
     39 C          23.9340   74.6953    4.7160 C.2     1  UNL1        0.2231
     40 C          25.3339   74.1423    4.7699 C.3     1  UNL1        0.0946
     41 N          23.0179   74.1346    3.9021 N.am    1  UNL1       -0.2994
     42 O          23.6303   75.6463    5.4057 O.2     1  UNL1       -0.2751
     43 H          23.2605   73.3749    3.3498 H       1  UNL1        0.1496
     44 C          17.6488   75.2958    2.4980 C.3     1  UNL1        0.1693
     45 O          17.5703   76.0733    1.3015 O.3     1  UNL1       -0.3794
     46 H          16.7101   76.4912    1.1590 H       1  UNL1        0.2105
@<TRIPOS>BOND
     1    29    30    1
     2    30    41    1
     3    30    31    1
     4    31    34    1
     5    31    32    1
     6    32    35    1
     7    32    33    1
     8    33    36    1
     9    33    44    1
    10    39    40    1
    11    39    42    2
    12    39    41   am
    13    41    43    1
    14    29    28    1
    15    34    37    1
    16    35    38    1
    17    29    36    1
    18    44    45    1
    19    45    46    1
    20    15     6    1
    21    15    16   ar
    22    16    21    2
    23    16    17   ar
    24    17    23    1
    25    17    18   ar
    26    18    19   ar
    27    19    20   ar
    28    15    20   ar
    29    18    22    2
    30     6     7    1
    31     6    11    1
    32     7     9    1
    33     7     8    1
    34     8    13    1
    35     9    10    1
    36     9    12    1
    37    10     5    1
    38    10    11    1
    39    12    14    1
    40     5     4    1
    41     4     1    1
    42     1     2    1
    43     1    24    1
    44     1     3    2
    45    24    25    1
    46    28    25    1
    47    25    26    1
    48    25    27    2
@<TRIPOS>MOLECULE
UD2
 46 48 0 0 0
SMALL
GASTEIGER

@<TRIPOS>ATOM
      1 P          23.0680   72.6594   -3.3226 P.3     1  UNL1        0.2189
      2 O          24.3247   73.5786   -3.7314 O.3     1  UNL1       -0.4371
      3 O          23.4002   71.2367   -3.5556 O.2     1  UNL1       -0.5170
      4 O          22.7245   72.8822   -1.7650 O.3     1  UNL1       -0.3112
      5 C          21.6075   72.2677   -1.1199 C.3     1  UNL1        0.1811
      6 C          20.6992   74.3252    1.6870 C.3     1  UNL1        0.2383
      7 C          21.7073   75.1854    0.8833 C.3     1  UNL1        0.1895
      8 O          21.4186   76.5774    1.0275 O.3     1  UNL1       -0.3779
      9 C          21.4501   74.7155   -0.5695 C.3     1  UNL1        0.1713
     10 C          20.7785   73.3386   -0.4065 C.3     1  UNL1        0.1764
     11 O          20.7202   73.0548    1.0005 O.3     1  UNL1       -0.3308
     12 O          20.5743   75.6235   -1.2398 O.3     1  UNL1       -0.3794
     13 H          22.0224   77.1568    0.5434 H       1  UNL1        0.2106
     14 H          20.9226   76.5218   -1.3179 H       1  UNL1        0.2105
     15 N          21.1442   74.1700    3.0737 N.ar    1  UNL1       -0.2551
     16 C          20.2337   74.0636    4.0578 C.ar    1  UNL1        0.3323
     17 N          20.6141   73.9203    5.3411 N.ar    1  UNL1       -0.2743
     18 C          21.9237   73.8793    5.6603 C.ar    1  UNL1        0.2626
     19 C          22.8930   73.9891    4.6343 C.ar    1  UNL1        0.0795
     20 C          22.4831   74.1277    3.3559 C.ar    1  UNL1        0.0869
     21 O          19.0494   74.0988    3.7847 O.2     1  UNL1       -0.2464
     22 O          22.2694   73.7492    6.8214 O.2     1  UNL1       -0.2670
     23 H          19.9446   73.8462    6.0385 H       1  UNL1        0.1734
     24 O          21.7918   73.0663   -4.2164 O.3     1  UNL1       -0.2703
     25 P          21.5561   73.2851   -5.7942 P.3     1  UNL1        0.2208
     26 O          21.3883   74.8577   -6.0983 O.3     1  UNL1       -0.4371
     27 O          22.7177   72.7594   -6.5444 O.2     1  UNL1       -0.5170
     28 O          20.2238   72.5046   -6.2510 O.3     1  UNL1       -0.2865
     29 C          18.9240   72.8257   -5.7524 C.3     1  UNL1        0.2611
     30 C          18.0643   71.5599   -5.7136 C.3     1  UNL1        0.1582
     31 C          17.8964   71.0233   -7.1385 C.3     1  UNL1        0.1625
     32 C          17.2801   72.1170   -8.0151 C.3     1  UNL1        0.1686
     33 C          18.1703   73.3616   -7.9651 C.3     1  UNL1        0.1760
     34 O          17.0344   69.8832   -7.1206 O.3     1  UNL1       -0.3801
     35 O          15.9767   72.4415   -7.5281 O.3     1  UNL1       -0.3794
     36 O          18.3105   73.7909   -6.6094 O.3     1  UNL1       -0.3263
     37 H          16.8841   69.4906   -7.9915 H       1  UNL1        0.2105
     38 H          15.5261   73.1300   -8.0369 H       1  UNL1        0.2105
     39 C          17.9851   69.7459   -4.0886 C.2     1  UNL1        0.2231
     40 C          18.6598   68.7045   -3.2349 C.3     1  UNL1        0.0946
     41 N          18.7214   70.5474   -4.8833 N.am    1  UNL1       -0.2994
     42 O          16.7778   69.8638   -4.0611 O.2     1  UNL1       -0.2751
     43 H          19.6867   70.4541   -4.9049 H       1  UNL1        0.1496
     44 C          17.5305   74.4794   -8.7908 C.3     1  UNL1        0.1693
     45 O          17.0921   73.9545  -10.0456 O.3     1  UNL1       -0.3794
     46 H          16.6755   74.6092  -10.6225 H       1  UNL1        0.2105
@<TRIPOS>BOND
     1    29    30    1
     2    30    41    1
     3    30    31    1
     4    31    34    1
     5    31    32    1
     6    32    35    1
     7    32    33    1
     8    33    36    1
     9    33    44    1
    10    39    40    1
    11    39    42    2
    12    39    41   am
    13    41    43    1
    14    29    28    1
    15    34    37    1
    16    35    38    1
    17    29    36    1
    18    44    45    1
    19    45    46    1
    20    15     6    1
    21    15    16   ar
    22    16    21    2
    23    16    17   ar
    24    17    23    1
    25    17    18   ar
    26    18    19   ar
    27    19    20   ar
    28    15    20   ar
    29    18    22    2
    30     6     7    1
    31     6    11    1
    32     7     9    1
    33     7     8    1
    34     8    13    1
    35     9    10    1
    36     9    12    1
    37    10     5    1
    38    10    11    1
    39    12    14    1
    40     5     4    1
    41     4     1    1
    42     1     2    1
    43     1    24    1
    44     1     3    2
    45    24    25    1
    46    28    25    1
    47    25    26    1
    48    25    27    2
@<TRIPOS>MOLECULE
UD2
 46 48 0 0 0
SMALL
GASTEIGER

@<TRIPOS>ATOM
      1 P          22.6773   73.8023   -3.7396 P.3     1  UNL1        0.2189
      2 O          23.1993   75.0403   -2.8529 O.3     1  UNL1       -0.4371
      3 O          23.8143   72.9131   -4.0642 O.2     1  UNL1       -0.5170
      4 O          21.5705   72.9773   -2.9101 O.3     1  UNL1       -0.3112
      5 C          21.3398   73.1736   -1.5138 C.3     1  UNL1        0.1811
      6 C          23.1332   72.3829    1.5020 C.3     1  UNL1        0.2383
      7 C          22.3957   71.0709    1.1318 C.3     1  UNL1        0.1895
      8 O          23.1400   69.9290    1.5606 O.3     1  UNL1       -0.3779
      9 C          22.3471   71.1501   -0.4138 C.3     1  UNL1        0.1713
     10 C          22.5385   72.6478   -0.7203 C.3     1  UNL1        0.1764
     11 O          22.6302   73.3338    0.5384 O.3     1  UNL1       -0.3308
     12 O          23.4073   70.3825   -0.9862 O.3     1  UNL1       -0.3794
     13 H          22.7191   69.0840    1.3522 H       1  UNL1        0.2106
     14 H          23.3695   69.4398   -0.7756 H       1  UNL1        0.2105
     15 N          22.7929   72.7992    2.8643 N.ar    1  UNL1       -0.2551
     16 C          21.5959   72.4708    3.3820 C.ar    1  UNL1        0.3323
     17 N          21.2564   72.8402    4.6312 N.ar    1  UNL1       -0.2743
     18 C          22.1193   73.5487    5.3876 C.ar    1  UNL1        0.2626
     19 C          23.3832   73.9004    4.8556 C.ar    1  UNL1        0.0795
     20 C          23.6987   73.5131    3.6018 C.ar    1  UNL1        0.0869
     21 O          20.8080   71.8320    2.7115 O.2     1  UNL1       -0.2464
     22 O          21.8134   73.8834    6.5185 O.2     1  UNL1       -0.2670
     23 H          20.3888   72.5962    4.9887 H       1  UNL1        0.1734
     24 O          22.0227   74.3564   -5.1026 O.3     1  UNL1       -0.2703
     25 P          21.5065   73.6587   -6.4590 P.3     1  UNL1        0.2208
     26 O          21.2252   74.7900   -7.5703 O.3     1  UNL1       -0.4371
     27 O          22.5393   72.7244   -6.9575 O.2     1  UNL1       -0.5170
     28 O          20.1473   72.8482   -6.1618 O.3     1  UNL1       -0.2865
     29 C          18.8987   73.1698   -6.7772 C.3     1  UNL1        0.2611
     30 C          17.7820   72.3491   -6.1274 C.3     1  UNL1        0.1582
     31 C          18.0489   70.8599   -6.3673 C.3     1  UNL1        0.1625
     32 C          18.1535   70.6073   -7.8739 C.3     1  UNL1        0.1686
     33 C          19.2562   71.4954   -8.4565 C.3     1  UNL1        0.1760
     34 O          16.9728   70.0892   -5.8274 O.3     1  UNL1       -0.3801
     35 O          16.9073   70.9207   -8.4984 O.3     1  UNL1       -0.3794
     36 O          18.9629   72.8647   -8.1718 O.3     1  UNL1       -0.3263
     37 H          17.0763   69.1348   -5.9434 H       1  UNL1        0.2105
     38 H          16.9013   70.7844   -9.4562 H       1  UNL1        0.2105
     39 C          16.5755   72.6743   -4.0355 C.2     1  UNL1        0.2231
     40 C          16.5454   72.9480   -2.5547 C.3     1  UNL1        0.0946
     41 N          17.7537   72.6156   -4.6870 N.am    1  UNL1       -0.2994
     42 O          15.5384   72.5066   -4.6427 O.2     1  UNL1       -0.2751
     43 H          18.5829   72.7505   -4.2021 H       1  UNL1        0.1496
     44 C          19.3268   71.2928   -9.9712 C.3     1  UNL1        0.1693
     45 O          18.5174   70.1746  -10.3412 O.3     1  UNL1       -0.3794
     46 H          18.5148   69.9871  -11.2898 H       1  UNL1        0.2105
@<TRIPOS>BOND
     1    29    30    1
     2    30    41    1
     3    30    31    1
     4    31    34    1
     5    31    32    1
     6    32    35    1
     7    32    33    1
     8    33    36    1
     9    33    44    1
    10    39    40    1
    11    39    42    2
    12    39    41   am
    13    41    43    1
    14    29    28    1
    15    34    37    1
    16    35    38    1
    17    29    36    1
    18    44    45    1
    19    45    46    1
    20    15     6    1
    21    15    16   ar
    22    16    21    2
    23    16    17   ar
    24    17    23    1
    25    17    18   ar
    26    18    19   ar
    27    19    20   ar
    28    15    20   ar
    29    18    22    2
    30     6     7    1
    31     6    11    1
    32     7     9    1
    33     7     8    1
    34     8    13    1
    35     9    10    1
    36     9    12    1
    37    10     5    1
    38    10    11    1
    39    12    14    1
    40     5     4    1
    41     4     1    1
    42     1     2    1
    43     1    24    1
    44     1     3    2
    45    24    25    1
    46    28    25    1
    47    25    26    1
    48    25    27    2
@<TRIPOS>MOLECULE
UD2
 46 48 0 0 0
SMALL
GASTEIGER

@<TRIPOS>ATOM
      1 P          22.0794   71.3089   -1.0480 P.3     1  UNL1        0.2189
      2 O          22.1188   69.7582   -0.6180 O.3     1  UNL1       -0.4371
      3 O          20.6908   71.8114   -0.9577 O.2     1  UNL1       -0.5170
      4 O          23.0244   72.1631   -0.0626 O.3     1  UNL1       -0.3112
      5 C          22.5389   73.2428    0.7373 C.3     1  UNL1        0.1811
      6 C          22.6960   73.7191    4.2989 C.3     1  UNL1        0.2383
      7 C          21.2122   73.9812    3.9357 C.3     1  UNL1        0.1895
      8 O          20.3504   73.6130    5.0143 O.3     1  UNL1       -0.3779
      9 C          21.0050   73.0461    2.7192 C.3     1  UNL1        0.1713
     10 C          22.4307   72.7886    2.1950 C.3     1  UNL1        0.1764
     11 O          23.3316   73.5520    3.0129 O.3     1  UNL1       -0.3308
     12 O          20.3937   71.8218    3.1294 O.3     1  UNL1       -0.3794
     13 H          19.4116   73.7590    4.8354 H       1  UNL1        0.2106
     14 H          19.5172   71.9312    3.5220 H       1  UNL1        0.2105
     15 N          23.2634   74.8667    5.0102 N.ar    1  UNL1       -0.2551
     16 C          23.1084   74.9682    6.3423 C.ar    1  UNL1        0.3323
     17 N          23.6192   76.0122    7.0216 N.ar    1  UNL1       -0.2743
     18 C          24.3003   76.9774    6.3712 C.ar    1  UNL1        0.2626
     19 C          24.4719   76.8828    4.9692 C.ar    1  UNL1        0.0795
     20 C          23.9528   75.8230    4.3142 C.ar    1  UNL1        0.0869
     21 O          22.4968   74.1052    6.9417 O.2     1  UNL1       -0.2464
     22 O          24.7634   77.9226    6.9850 O.2     1  UNL1       -0.2670
     23 H          23.4972   76.0705    7.9817 H       1  UNL1        0.1734
     24 O          22.6078   71.4600   -2.5617 O.3     1  UNL1       -0.2703
     25 P          22.5889   72.6576   -3.6380 P.3     1  UNL1        0.2208
     26 O          22.0862   74.0114   -2.9251 O.3     1  UNL1       -0.4371
     27 O          23.9525   72.8604   -4.1746 O.2     1  UNL1       -0.5170
     28 O          21.5884   72.2811   -4.8421 O.3     1  UNL1       -0.2865
     29 C          20.6063   73.1861   -5.3500 C.3     1  UNL1        0.2611
     30 C          19.3530   72.4062   -5.7544 C.3     1  UNL1        0.1582
     31 C          19.7108   71.4292   -6.8787 C.3     1  UNL1        0.1625
     32 C          20.3100   72.2127   -8.0498 C.3     1  UNL1        0.1686
     33 C          21.5268   73.0002   -7.5567 C.3     1  UNL1        0.1760
     34 O          18.5311   70.7489   -7.3131 O.3     1  UNL1       -0.3801
     35 O          19.3335   73.1171   -8.5690 O.3     1  UNL1       -0.3794
     36 O          21.1316   73.8668   -6.4915 O.3     1  UNL1       -0.3263
     37 H          18.6842   70.1124   -8.0248 H       1  UNL1        0.2105
     38 H          19.6456   73.6484   -9.3148 H       1  UNL1        0.2105
     39 C          19.2875   70.4088   -4.3602 C.2     1  UNL1        0.2231
     40 C          18.7682   69.6409   -3.1731 C.3     1  UNL1        0.0946
     41 N          18.8472   71.6598   -4.5996 N.am    1  UNL1       -0.2994
     42 O          20.1027   69.9012   -5.1018 O.2     1  UNL1       -0.2751
     43 H          18.1948   72.0656   -4.0075 H       1  UNL1        0.1496
     44 C          22.0958   73.8325   -8.7073 C.3     1  UNL1        0.1693
     45 O          23.4759   73.5106   -8.8919 O.3     1  UNL1       -0.3794
     46 H          23.9028   74.0021   -9.6070 H       1  UNL1        0.2105
@<TRIPOS>BOND
     1    29    30    1
     2    30    41    1
     3    30    31    1
     4    31    34    1
     5    31    32    1
     6    32    35    1
     7    32    33    1
     8    33    36    1
     9    33    44    1
    10    39    40    1
    11    39    42    2
    12    39    41   am
    13    41    43    1
    14    29    28    1
    15    34    37    1
    16    35    38    1
    17    29    36    1
    18    44    45    1
    19    45    46    1
    20    15     6    1
    21    15    16   ar
    22    16    21    2
    23    16    17   ar
    24    17    23    1
    25    17    18   ar
    26    18    19   ar
    27    19    20   ar
    28    15    20   ar
    29    18    22    2
    30     6     7    1
    31     6    11    1
    32     7     9    1
    33     7     8    1
    34     8    13    1
    35     9    10    1
    36     9    12    1
    37    10     5    1
    38    10    11    1
    39    12    14    1
    40     5     4    1
    41     4     1    1
    42     1     2    1
    43     1    24    1
    44     1     3    2
    45    24    25    1
    46    28    25    1
    47    25    26    1
    48    25    27    2
@<TRIPOS>MOLECULE
UD2
 46 48 0 0 0
SMALL
GASTEIGER

@<TRIPOS>ATOM
      1 P          22.3292   71.3233   -2.7891 P.3     1  UNL1        0.2189
      2 O          23.5981   70.4796   -3.3083 O.3     1  UNL1       -0.4371
      3 O          21.5555   70.5093   -1.8259 O.2     1  UNL1       -0.5170
      4 O          22.8392   72.6692   -2.0665 O.3     1  UNL1       -0.3112
      5 C          22.1122   73.3115   -1.0176 C.3     1  UNL1        0.1811
      6 C          22.6583   73.4249    2.5357 C.3     1  UNL1        0.2383
      7 C          21.2264   72.8525    2.3795 C.3     1  UNL1        0.1895
      8 O          20.9151   71.9583    3.4496 O.3     1  UNL1       -0.3779
      9 C          21.3252   72.0916    1.0347 C.3     1  UNL1        0.1713
     10 C          22.5396   72.7268    0.3309 C.3     1  UNL1        0.1764
     11 O          23.0295   73.7733    1.1842 O.3     1  UNL1       -0.3308
     12 O          21.5512   70.6998    1.2644 O.3     1  UNL1       -0.3794
     13 H          20.0293   71.5745    3.3967 H       1  UNL1        0.2106
     14 H          20.8439   70.2617    1.7566 H       1  UNL1        0.2105
     15 N          22.6482   74.6136    3.3911 N.ar    1  UNL1       -0.2551
     16 C          23.6598   74.8237    4.2521 C.ar    1  UNL1        0.3323
     17 N          23.6764   75.9075    5.0504 N.ar    1  UNL1       -0.2743
     18 C          22.6720   76.8057    4.9963 C.ar    1  UNL1        0.2626
     19 C          21.6012   76.5976    4.0939 C.ar    1  UNL1        0.0795
     20 C          21.6126   75.5045    3.3024 C.ar    1  UNL1        0.0869
     21 O          24.5722   74.0222    4.3114 O.2     1  UNL1       -0.2464
     22 O          22.6860   77.7873    5.7180 O.2     1  UNL1       -0.2670
     23 H          24.4129   76.0431    5.6663 H       1  UNL1        0.1734
     24 O          21.3922   71.7090   -4.0407 O.3     1  UNL1       -0.2703
     25 P          21.4358   72.8725   -5.1531 P.3     1  UNL1        0.2208
     26 O          21.0799   74.2848   -4.4658 O.3     1  UNL1       -0.4371
     27 O          22.7902   72.9397   -5.7443 O.2     1  UNL1       -0.5170
     28 O          20.3609   72.5511   -6.3080 O.3     1  UNL1       -0.2865
     29 C          20.3503   71.3257   -7.0425 C.3     1  UNL1        0.2611
     30 C          20.2689   71.6282   -8.5407 C.3     1  UNL1        0.1582
     31 C          18.9546   72.3581   -8.8347 C.3     1  UNL1        0.1625
     32 C          17.7852   71.4955   -8.3524 C.3     1  UNL1        0.1686
     33 C          17.9623   71.1980   -6.8610 C.3     1  UNL1        0.1760
     34 O          18.8362   72.5795  -10.2419 O.3     1  UNL1       -0.3801
     35 O          17.7621   70.2691   -9.0851 O.3     1  UNL1       -0.3794
     36 O          19.2172   70.5469   -6.6526 O.3     1  UNL1       -0.3263
     37 H          18.0257   73.0392  -10.5005 H       1  UNL1        0.2105
     38 H          17.0452   69.6715   -8.8305 H       1  UNL1        0.2105
     39 C          21.2632   73.8175   -8.9359 C.2     1  UNL1        0.2231
     40 C          22.4235   74.6904   -9.3364 C.3     1  UNL1        0.0946
     41 N          21.3979   72.4766   -8.9306 N.am    1  UNL1       -0.2994
     42 O          20.2063   74.3214   -8.6179 O.2     1  UNL1       -0.2751
     43 H          22.2425   72.0733   -9.1857 H       1  UNL1        0.1496
     44 C          16.8294   70.2869   -6.3848 C.3     1  UNL1        0.1693
     45 O          16.7656   70.3113   -4.9573 O.3     1  UNL1       -0.3794
     46 H          16.0682   69.7547   -4.5847 H       1  UNL1        0.2105
@<TRIPOS>BOND
     1    29    30    1
     2    30    41    1
     3    30    31    1
     4    31    34    1
     5    31    32    1
     6    32    35    1
     7    32    33    1
     8    33    36    1
     9    33    44    1
    10    39    40    1
    11    39    42    2
    12    39    41   am
    13    41    43    1
    14    29    28    1
    15    34    37    1
    16    35    38    1
    17    29    36    1
    18    44    45    1
    19    45    46    1
    20    15     6    1
    21    15    16   ar
    22    16    21    2
    23    16    17   ar
    24    17    23    1
    25    17    18   ar
    26    18    19   ar
    27    19    20   ar
    28    15    20   ar
    29    18    22    2
    30     6     7    1
    31     6    11    1
    32     7     9    1
    33     7     8    1
    34     8    13    1
    35     9    10    1
    36     9    12    1
    37    10     5    1
    38    10    11    1
    39    12    14    1
    40     5     4    1
    41     4     1    1
    42     1     2    1
    43     1    24    1
    44     1     3    2
    45    24    25    1
    46    28    25    1
    47    25    26    1
    48    25    27    2
@<TRIPOS>MOLECULE
UD2
 46 48 0 0 0
SMALL
GASTEIGER

@<TRIPOS>ATOM
      1 P          22.7473   71.9326   -3.1562 P.3     1  UNL1        0.2189
      2 O          23.7790   73.1682   -3.1406 O.3     1  UNL1       -0.4371
      3 O          23.4978   70.6641   -3.2842 O.2     1  UNL1       -0.5170
      4 O          21.9035   71.9210   -1.7845 O.3     1  UNL1       -0.3112
      5 C          22.5033   72.1094   -0.5014 C.3     1  UNL1        0.1811
      6 C          22.2148   74.6898    1.9875 C.3     1  UNL1        0.2383
      7 C          23.6840   74.7790    1.5022 C.3     1  UNL1        0.1895
      8 O          24.1682   76.1208    1.5859 O.3     1  UNL1       -0.3779
      9 C          23.5672   74.3250    0.0265 C.3     1  UNL1        0.1713
     10 C          22.2427   73.5396   -0.0221 C.3     1  UNL1        0.1764
     11 O          21.7087   73.5184    1.3113 O.3     1  UNL1       -0.3308
     12 O          23.5092   75.4584   -0.8411 O.3     1  UNL1       -0.3794
     13 H          25.0835   76.2278    1.2937 H       1  UNL1        0.2106
     14 H          24.2941   76.0217   -0.8066 H       1  UNL1        0.2105
     15 N          22.1614   74.5108    3.4402 N.ar    1  UNL1       -0.2551
     16 C          22.0266   75.5840    4.2394 C.ar    1  UNL1        0.3323
     17 N          21.9749   75.4490    5.5778 N.ar    1  UNL1       -0.2743
     18 C          22.0563   74.2261    6.1402 C.ar    1  UNL1        0.2626
     19 C          22.1973   73.0875    5.3108 C.ar    1  UNL1        0.0795
     20 C          22.2421   73.2519    3.9720 C.ar    1  UNL1        0.0869
     21 O          21.9518   76.6928    3.7460 O.2     1  UNL1       -0.2464
     22 O          22.0093   74.1025    7.3514 O.2     1  UNL1       -0.2670
     23 H          21.8787   76.2335    6.1395 H       1  UNL1        0.1734
     24 O          21.7407   72.0892   -4.4033 O.3     1  UNL1       -0.2703
     25 P          20.8482   73.3019   -4.9741 P.3     1  UNL1        0.2208
     26 O          19.8759   73.8457   -3.8110 O.3     1  UNL1       -0.4371
     27 O          21.7344   74.3963   -5.4272 O.2     1  UNL1       -0.5170
     28 O          19.9629   72.7796   -6.2135 O.3     1  UNL1       -0.2865
     29 C          20.0904   71.4667   -6.7626 C.3     1  UNL1        0.2611
     30 C          20.2238   71.5599   -8.2845 C.3     1  UNL1        0.1582
     31 C          18.9501   72.1842   -8.8628 C.3     1  UNL1        0.1625
     32 C          17.7434   71.3438   -8.4362 C.3     1  UNL1        0.1686
     33 C          17.7056   71.2590   -6.9080 C.3     1  UNL1        0.1760
     34 O          19.0354   72.2077  -10.2894 O.3     1  UNL1       -0.3801
     35 O          17.8584   70.0298   -8.9852 O.3     1  UNL1       -0.3794
     36 O          18.9313   70.6985   -6.4332 O.3     1  UNL1       -0.3263
     37 H          18.2611   72.5918  -10.7231 H       1  UNL1        0.2105
     38 H          17.1264   69.4409   -8.7544 H       1  UNL1        0.2105
     39 C          21.2085   73.7126   -8.8622 C.2     1  UNL1        0.2231
     40 C          22.3938   74.5739   -9.2113 C.3     1  UNL1        0.0946
     41 N          21.3772   72.3969   -8.6243 N.am    1  UNL1       -0.2994
     42 O          20.1008   74.2032   -8.7949 O.2     1  UNL1       -0.2751
     43 H          22.2625   72.0041   -8.6789 H       1  UNL1        0.1496
     44 C          16.5371   70.3714   -6.4754 C.3     1  UNL1        0.1693
     45 O          16.9014   69.6414   -5.3021 O.3     1  UNL1       -0.3794
     46 H          16.2065   69.0563   -4.9706 H       1  UNL1        0.2105
@<TRIPOS>BOND
     1    29    30    1
     2    30    41    1
     3    30    31    1
     4    31    34    1
     5    31    32    1
     6    32    35    1
     7    32    33    1
     8    33    36    1
     9    33    44    1
    10    39    40    1
    11    39    42    2
    12    39    41   am
    13    41    43    1
    14    29    28    1
    15    34    37    1
    16    35    38    1
    17    29    36    1
    18    44    45    1
    19    45    46    1
    20    15     6    1
    21    15    16   ar
    22    16    21    2
    23    16    17   ar
    24    17    23    1
    25    17    18   ar
    26    18    19   ar
    27    19    20   ar
    28    15    20   ar
    29    18    22    2
    30     6     7    1
    31     6    11    1
    32     7     9    1
    33     7     8    1
    34     8    13    1
    35     9    10    1
    36     9    12    1
    37    10     5    1
    38    10    11    1
    39    12    14    1
    40     5     4    1
    41     4     1    1
    42     1     2    1
    43     1    24    1
    44     1     3    2
    45    24    25    1
    46    28    25    1
    47    25    26    1
    48    25    27    2
@<TRIPOS>MOLECULE
UD2
 46 48 0 0 0
SMALL
GASTEIGER

@<TRIPOS>ATOM
      1 P          22.8700   74.6463   -4.9258 P.3     1  UNL1        0.2189
      2 O          23.9014   75.5508   -5.7681 O.3     1  UNL1       -0.4371
      3 O          23.5394   73.3960   -4.5048 O.2     1  UNL1       -0.5170
      4 O          22.3833   75.4593   -3.6235 O.3     1  UNL1       -0.3112
      5 C          21.0617   75.9840   -3.4839 C.3     1  UNL1        0.1811
      6 C          20.8747   74.0659   -0.4470 C.3     1  UNL1        0.2383
      7 C          21.9329   75.1595   -0.1528 C.3     1  UNL1        0.1895
      8 O          21.9311   75.5114    1.2321 O.3     1  UNL1       -0.3779
      9 C          21.4329   76.3385   -1.0230 C.3     1  UNL1        0.1713
     10 C          20.5344   75.6707   -2.0815 C.3     1  UNL1        0.1764
     11 O          20.5787   74.2540   -1.8480 O.3     1  UNL1       -0.3308
     12 O          20.6768   77.2569   -0.2320 O.3     1  UNL1       -0.3794
     13 H          22.5768   76.1918    1.4661 H       1  UNL1        0.2106
     14 H          21.1784   77.6630    0.4876 H       1  UNL1        0.2105
     15 N          21.4321   72.7321   -0.2116 N.ar    1  UNL1       -0.2551
     16 C          21.3902   72.2008    1.0231 C.ar    1  UNL1        0.3323
     17 N          21.8950   70.9771    1.2683 N.ar    1  UNL1       -0.2743
     18 C          22.4526   70.2607    0.2711 C.ar    1  UNL1        0.2626
     19 C          22.5025   70.8074   -1.0338 C.ar    1  UNL1        0.0795
     20 C          21.9850   72.0346   -1.2518 C.ar    1  UNL1        0.0869
     21 O          20.8902   72.8354    1.9318 O.2     1  UNL1       -0.2464
     22 O          22.9095   69.1529    0.4916 O.2     1  UNL1       -0.2670
     23 H          21.8576   70.6094    2.1647 H       1  UNL1        0.1734
     24 O          21.5950   74.2904   -5.8429 O.3     1  UNL1       -0.2703
     25 P          21.3513   73.2849   -7.0767 P.3     1  UNL1        0.2208
     26 O          21.0555   74.1359   -8.4116 O.3     1  UNL1       -0.4371
     27 O          22.5569   72.4522   -7.2804 O.2     1  UNL1       -0.5170
     28 O          20.0911   72.3357   -6.7546 O.3     1  UNL1       -0.2865
     29 C          18.9931   72.7496   -5.9394 C.3     1  UNL1        0.2611
     30 C          18.0628   71.5596   -5.6923 C.3     1  UNL1        0.1582
     31 C          17.4935   71.0810   -7.0314 C.3     1  UNL1        0.1625
     32 C          16.7747   72.2477   -7.7145 C.3     1  UNL1        0.1686
     33 C          17.7550   73.4114   -7.8838 C.3     1  UNL1        0.1760
     34 O          16.5667   70.0170   -6.8030 O.3     1  UNL1       -0.3801
     35 O          15.6707   72.6656   -6.9097 O.3     1  UNL1       -0.3794
     36 O          18.2707   73.7875   -6.6053 O.3     1  UNL1       -0.3263
     37 H          16.1670   69.6640   -7.6097 H       1  UNL1        0.2105
     38 H          15.1688   73.4040   -7.2822 H       1  UNL1        0.2105
     39 C          18.2408   69.7188   -4.1056 C.2     1  UNL1        0.2231
     40 C          19.0147   68.6001   -3.4591 C.3     1  UNL1        0.0946
     41 N          18.8164   70.4717   -5.0637 N.am    1  UNL1       -0.2994
     42 O          17.0983   69.9429   -3.7639 O.2     1  UNL1       -0.2751
     43 H          19.7301   70.2935   -5.3366 H       1  UNL1        0.1496
     44 C          17.0286   74.6026   -8.5115 C.3     1  UNL1        0.1693
     45 O          17.9327   75.7027   -8.6327 O.3     1  UNL1       -0.3794
     46 H          17.5392   76.4946   -9.0239 H       1  UNL1        0.2105
@<TRIPOS>BOND
     1    29    30    1
     2    30    41    1
     3    30    31    1
     4    31    34    1
     5    31    32    1
     6    32    35    1
     7    32    33    1
     8    33    36    1
     9    33    44    1
    10    39    40    1
    11    39    42    2
    12    39    41   am
    13    41    43    1
    14    29    28    1
    15    34    37    1
    16    35    38    1
    17    29    36    1
    18    44    45    1
    19    45    46    1
    20    15     6    1
    21    15    16   ar
    22    16    21    2
    23    16    17   ar
    24    17    23    1
    25    17    18   ar
    26    18    19   ar
    27    19    20   ar
    28    15    20   ar
    29    18    22    2
    30     6     7    1
    31     6    11    1
    32     7     9    1
    33     7     8    1
    34     8    13    1
    35     9    10    1
    36     9    12    1
    37    10     5    1
    38    10    11    1
    39    12    14    1
    40     5     4    1
    41     4     1    1
    42     1     2    1
    43     1    24    1
    44     1     3    2
    45    24    25    1
    46    28    25    1
    47    25    26    1
    48    25    27    2
@<TRIPOS>MOLECULE
UD2
 46 48 0 0 0
SMALL
GASTEIGER

@<TRIPOS>ATOM
      1 P          22.2301   70.3835   -0.3684 P.3     1  UNL1        0.2189
      2 O          21.0566   70.9418    0.5816 O.3     1  UNL1       -0.4371
      3 O          23.0778   69.4416    0.3953 O.2     1  UNL1       -0.5170
      4 O          21.5819   69.6204   -1.6298 O.3     1  UNL1       -0.3112
      5 C          21.2294   70.2864   -2.8438 C.3     1  UNL1        0.1811
      6 C          18.1268   71.2649   -4.3777 C.3     1  UNL1        0.2383
      7 C          18.1695   69.7234   -4.5336 C.3     1  UNL1        0.1895
      8 O          16.8511   69.1727   -4.5200 O.3     1  UNL1       -0.3779
      9 C          18.9617   69.2911   -3.2754 C.3     1  UNL1        0.1713
     10 C          19.7239   70.5623   -2.8551 C.3     1  UNL1        0.1764
     11 O          19.4211   71.5817   -3.8209 O.3     1  UNL1       -0.3308
     12 O          18.0678   68.8782   -2.2405 O.3     1  UNL1       -0.3794
     13 H          16.8253   68.2109   -4.6151 H       1  UNL1        0.2106
     14 H          17.5198   68.1167   -2.4736 H       1  UNL1        0.2105
     15 N          17.9533   71.9104   -5.6808 N.ar    1  UNL1       -0.2551
     16 C          16.7204   72.2501   -6.0974 C.ar    1  UNL1        0.3323
     17 N          16.5315   72.8444   -7.2904 N.ar    1  UNL1       -0.2743
     18 C          17.5841   73.1111   -8.0901 C.ar    1  UNL1        0.2626
     19 C          18.8875   72.7599   -7.6638 C.ar    1  UNL1        0.0795
     20 C          19.0480   72.1690   -6.4610 C.ar    1  UNL1        0.0869
     21 O          15.7622   72.0158   -5.3866 O.2     1  UNL1       -0.2464
     22 O          17.4144   73.6493   -9.1699 O.2     1  UNL1       -0.2670
     23 H          15.6357   73.0816   -7.5759 H       1  UNL1        0.1734
     24 O          23.1294   71.6133   -0.8902 O.3     1  UNL1       -0.2703
     25 P          22.8516   73.1827   -1.1199 P.3     1  UNL1        0.2208
     26 O          23.6243   73.6757   -2.4442 O.3     1  UNL1       -0.4371
     27 O          21.3989   73.4079   -1.2845 O.2     1  UNL1       -0.5170
     28 O          23.3833   74.0136    0.1527 O.3     1  UNL1       -0.2865
     29 C          22.5176   74.7503    1.0183 C.3     1  UNL1        0.2611
     30 C          23.3220   75.8277    1.7497 C.3     1  UNL1        0.1582
     31 C          24.3872   75.1543    2.6205 C.3     1  UNL1        0.1625
     32 C          23.7025   74.1845    3.5874 C.3     1  UNL1        0.1686
     33 C          22.8832   73.1702    2.7849 C.3     1  UNL1        0.1760
     34 O          25.0950   76.1494    3.3635 O.3     1  UNL1       -0.3801
     35 O          22.8382   74.9124    4.4618 O.3     1  UNL1       -0.3794
     36 O          21.9325   73.8632    1.9738 O.3     1  UNL1       -0.3263
     37 H          25.7871   75.7930    3.9373 H       1  UNL1        0.2105
     38 H          22.3697   74.3595    5.1027 H       1  UNL1        0.2105
     39 C          25.2261   76.4367    0.3565 C.2     1  UNL1        0.2231
     40 C          25.8945   77.3357   -0.6504 C.3     1  UNL1        0.0946
     41 N          23.9715   76.7027    0.7704 N.am    1  UNL1       -0.2994
     42 O          25.8173   75.4724    0.7956 O.2     1  UNL1       -0.2751
     43 H          23.4988   77.4741    0.4203 H       1  UNL1        0.1496
     44 C          22.1480   72.2341    3.7460 C.3     1  UNL1        0.1693
     45 O          20.8419   71.9570    3.2364 O.3     1  UNL1       -0.3794
     46 H          20.3176   71.3681    3.7961 H       1  UNL1        0.2105
@<TRIPOS>BOND
     1    29    30    1
     2    30    41    1
     3    30    31    1
     4    31    34    1
     5    31    32    1
     6    32    35    1
     7    32    33    1
     8    33    36    1
     9    33    44    1
    10    39    40    1
    11    39    42    2
    12    39    41   am
    13    41    43    1
    14    29    28    1
    15    34    37    1
    16    35    38    1
    17    29    36    1
    18    44    45    1
    19    45    46    1
    20    15     6    1
    21    15    16   ar
    22    16    21    2
    23    16    17   ar
    24    17    23    1
    25    17    18   ar
    26    18    19   ar
    27    19    20   ar
    28    15    20   ar
    29    18    22    2
    30     6     7    1
    31     6    11    1
    32     7     9    1
    33     7     8    1
    34     8    13    1
    35     9    10    1
    36     9    12    1
    37    10     5    1
    38    10    11    1
    39    12    14    1
    40     5     4    1
    41     4     1    1
    42     1     2    1
    43     1    24    1
    44     1     3    2
    45    24    25    1
    46    28    25    1
    47    25    26    1
    48    25    27    2
@<TRIPOS>MOLECULE
UD2
 46 48 0 0 0
SMALL
GASTEIGER

@<TRIPOS>ATOM
      1 P          20.3633   72.6759   -8.5915 P.3     1  UNL1        0.2189
      2 O          19.2992   73.8432   -8.2812 O.3     1  UNL1       -0.4371
      3 O          19.7138   71.6156   -9.3932 O.2     1  UNL1       -0.5170
      4 O          21.6050   73.2870   -9.4152 O.3     1  UNL1       -0.3112
      5 C          22.5209   74.2295   -8.8547 C.3     1  UNL1        0.1811
      6 C          24.6652   74.4612  -11.7331 C.3     1  UNL1        0.2383
      7 C          24.7699   75.8515  -11.0562 C.3     1  UNL1        0.1895
      8 O          26.0573   76.4308  -11.2772 O.3     1  UNL1       -0.3779
      9 C          24.5710   75.5013   -9.5611 C.3     1  UNL1        0.1713
     10 C          23.8622   74.1336   -9.5859 C.3     1  UNL1        0.1764
     11 O          23.6444   73.7895  -10.9634 O.3     1  UNL1       -0.3308
     12 O          25.8335   75.3989   -8.9005 O.3     1  UNL1       -0.3794
     13 H          26.1715   77.3018  -10.8735 H       1  UNL1        0.2106
     14 H          26.3490   76.2167   -8.9068 H       1  UNL1        0.2105
     15 N          24.2514   74.5981  -13.1313 N.ar    1  UNL1       -0.2551
     16 C          24.2257   73.5146  -13.9277 C.ar    1  UNL1        0.3323
     17 N          23.8498   73.6111  -15.2168 N.ar    1  UNL1       -0.2743
     18 C          23.4891   74.8045  -15.7311 C.ar    1  UNL1        0.2626
     19 C          23.5104   75.9530  -14.9037 C.ar    1  UNL1        0.0795
     20 C          23.8875   75.8263  -13.6140 C.ar    1  UNL1        0.0869
     21 O          24.5482   72.4322  -13.4774 O.2     1  UNL1       -0.2464
     22 O          23.1482   74.8931  -16.8974 O.2     1  UNL1       -0.2670
     23 H          23.8381   72.8202  -15.7775 H       1  UNL1        0.1734
     24 O          20.8949   72.0516   -7.2055 O.3     1  UNL1       -0.2703
     25 P          21.1608   72.6555   -5.7366 P.3     1  UNL1        0.2208
     26 O          22.7450   72.6855   -5.4480 O.3     1  UNL1       -0.4371
     27 O          20.6205   74.0307   -5.6631 O.2     1  UNL1       -0.5170
     28 O          20.4319   71.7325   -4.6369 O.3     1  UNL1       -0.2865
     29 C          19.1287   72.0150   -4.1238 C.3     1  UNL1        0.2611
     30 C          18.8091   71.0490   -2.9804 C.3     1  UNL1        0.1582
     31 C          18.7949   69.6165   -3.5227 C.3     1  UNL1        0.1625
     32 C          17.7770   69.5237   -4.6627 C.3     1  UNL1        0.1686
     33 C          18.1366   70.5487   -5.7415 C.3     1  UNL1        0.1760
     34 O          18.4250   68.7142   -2.4775 O.3     1  UNL1       -0.3801
     35 O          16.4688   69.7990   -4.1586 O.3     1  UNL1       -0.3794
     36 O          18.1625   71.8558   -5.1647 O.3     1  UNL1       -0.3263
     37 H          18.3964   67.7870   -2.7507 H       1  UNL1        0.2105
     38 H          15.7719   69.7585   -4.8284 H       1  UNL1        0.2105
     39 C          20.8905   70.3337   -1.9347 C.2     1  UNL1        0.2231
     40 C          21.9431   70.4557   -0.8642 C.3     1  UNL1        0.0946
     41 N          19.8323   71.1681   -1.9386 N.am    1  UNL1       -0.2994
     42 O          20.9949   69.4837   -2.7942 O.2     1  UNL1       -0.2751
     43 H          19.7480   71.8472   -1.2510 H       1  UNL1        0.1496
     44 C          17.0901   70.5036   -6.8566 C.3     1  UNL1        0.1693
     45 O          17.1372   71.7205   -7.6045 O.3     1  UNL1       -0.3794
     46 H          16.4990   71.7620   -8.3298 H       1  UNL1        0.2105
@<TRIPOS>BOND
     1    29    30    1
     2    30    41    1
     3    30    31    1
     4    31    34    1
     5    31    32    1
     6    32    35    1
     7    32    33    1
     8    33    36    1
     9    33    44    1
    10    39    40    1
    11    39    42    2
    12    39    41   am
    13    41    43    1
    14    29    28    1
    15    34    37    1
    16    35    38    1
    17    29    36    1
    18    44    45    1
    19    45    46    1
    20    15     6    1
    21    15    16   ar
    22    16    21    2
    23    16    17   ar
    24    17    23    1
    25    17    18   ar
    26    18    19   ar
    27    19    20   ar
    28    15    20   ar
    29    18    22    2
    30     6     7    1
    31     6    11    1
    32     7     9    1
    33     7     8    1
    34     8    13    1
    35     9    10    1
    36     9    12    1
    37    10     5    1
    38    10    11    1
    39    12    14    1
    40     5     4    1
    41     4     1    1
    42     1     2    1
    43     1    24    1
    44     1     3    2
    45    24    25    1
    46    28    25    1
    47    25    26    1
    48    25    27    2
@<TRIPOS>MOLECULE
UD2
 46 48 0 0 0
SMALL
GASTEIGER

@<TRIPOS>ATOM
      1 P          19.4674   70.0363   -3.3090 P.3     1  UNL1        0.2189
      2 O          18.0725   69.8572   -2.5257 O.3     1  UNL1       -0.4371
      3 O          20.1390   68.7235   -3.4283 O.2     1  UNL1       -0.5170
      4 O          19.1847   70.6302   -4.7791 O.3     1  UNL1       -0.3112
      5 C          17.9493   70.4376   -5.4707 C.3     1  UNL1        0.1811
      6 C          18.9676   73.0439   -7.7306 C.3     1  UNL1        0.2383
      7 C          18.6571   71.8330   -8.6468 C.3     1  UNL1        0.1895
      8 O          18.1819   72.2672   -9.9225 O.3     1  UNL1       -0.3779
      9 C          17.5392   71.1071   -7.8588 C.3     1  UNL1        0.1713
     10 C          17.7043   71.6175   -6.4145 C.3     1  UNL1        0.1764
     11 O          18.8383   72.4992   -6.3993 O.3     1  UNL1       -0.3308
     12 O          16.2547   71.4640   -8.3720 O.3     1  UNL1       -0.3794
     13 H          17.9744   71.5458  -10.5316 H       1  UNL1        0.2106
     14 H          16.1180   71.2189   -9.2971 H       1  UNL1        0.2105
     15 N          20.3306   73.5282   -7.9601 N.ar    1  UNL1       -0.2551
     16 C          21.3727   72.6982   -7.7759 C.ar    1  UNL1        0.3323
     17 N          22.6359   73.1165   -7.9792 N.ar    1  UNL1       -0.2743
     18 C          22.8761   74.3830   -8.3753 C.ar    1  UNL1        0.2626
     19 C          21.7885   75.2672   -8.5741 C.ar    1  UNL1        0.0795
     20 C          20.5322   74.8197   -8.3669 C.ar    1  UNL1        0.0869
     21 O          21.1710   71.5535   -7.4190 O.2     1  UNL1       -0.2464
     22 O          24.0190   74.7627   -8.5601 O.2     1  UNL1       -0.2670
     23 H          23.3758   72.5053   -7.8406 H       1  UNL1        0.1734
     24 O          20.4145   71.0520   -2.4937 O.3     1  UNL1       -0.2703
     25 P          21.8944   70.9425   -1.8687 P.3     1  UNL1        0.2208
     26 O          21.9444   69.7218   -0.8194 O.3     1  UNL1       -0.4371
     27 O          22.8715   70.7007   -2.9528 O.2     1  UNL1       -0.5170
     28 O          22.2604   72.3161   -1.1123 O.3     1  UNL1       -0.2865
     29 C          21.3017   73.0799   -0.3783 C.3     1  UNL1        0.2611
     30 C          21.7782   74.5304   -0.2701 C.3     1  UNL1        0.1582
     31 C          23.0973   74.5687    0.5076 C.3     1  UNL1        0.1625
     32 C          22.8874   73.9228    1.8799 C.3     1  UNL1        0.1686
     33 C          22.3681   72.4953    1.6887 C.3     1  UNL1        0.1760
     34 O          23.5121   75.9261    0.6770 O.3     1  UNL1       -0.3801
     35 O          21.9340   74.6828    2.6247 O.3     1  UNL1       -0.3794
     36 O          21.1563   72.5284    0.9321 O.3     1  UNL1       -0.3263
     37 H          24.3430   76.0255    1.1617 H       1  UNL1        0.2105
     38 H          21.7511   74.3297    3.5067 H       1  UNL1        0.2105
     39 C          23.1931   74.9802   -2.2023 C.2     1  UNL1        0.2231
     40 C          23.4067   75.5435   -3.5828 C.3     1  UNL1        0.0946
     41 N          21.9852   75.0788   -1.6128 N.am    1  UNL1       -0.2994
     42 O          24.1088   74.4372   -1.6201 O.2     1  UNL1       -0.2751
     43 H          21.2532   75.5137   -2.0775 H       1  UNL1        0.1496
     44 C          22.0990   71.8635    3.0558 C.3     1  UNL1        0.1693
     45 O          20.7336   72.0770    3.4197 O.3     1  UNL1       -0.3794
     46 H          20.4914   71.7023    4.2775 H       1  UNL1        0.2105
@<TRIPOS>BOND
     1    29    30    1
     2    30    41    1
     3    30    31    1
     4    31    34    1
     5    31    32    1
     6    32    35    1
     7    32    33    1
     8    33    36    1
     9    33    44    1
    10    39    40    1
    11    39    42    2
    12    39    41   am
    13    41    43    1
    14    29    28    1
    15    34    37    1
    16    35    38    1
    17    29    36    1
    18    44    45    1
    19    45    46    1
    20    15     6    1
    21    15    16   ar
    22    16    21    2
    23    16    17   ar
    24    17    23    1
    25    17    18   ar
    26    18    19   ar
    27    19    20   ar
    28    15    20   ar
    29    18    22    2
    30     6     7    1
    31     6    11    1
    32     7     9    1
    33     7     8    1
    34     8    13    1
    35     9    10    1
    36     9    12    1
    37    10     5    1
    38    10    11    1
    39    12    14    1
    40     5     4    1
    41     4     1    1
    42     1     2    1
    43     1    24    1
    44     1     3    2
    45    24    25    1
    46    28    25    1
    47    25    26    1
    48    25    27    2
