@<TRIPOS>MOLECULE
UD1
 46 48 0 0 0
SMALL
GASTEIGER

@<TRIPOS>ATOM
      1 P          21.6814   70.8851   -2.5189 P.3     1  UNL1        0.2189
      2 O          23.1464   71.0756   -2.5988 O.2     1  UNL1       -0.5170
      3 O          21.3164   69.3638   -2.8995 O.3     1  UNL1       -0.4371
      4 O          20.9538   71.8846   -3.5506 O.3     1  UNL1       -0.3112
      5 C          19.9263   72.5568   -2.8208 C.3     1  UNL1        0.1811
      6 C          17.7940   71.4185   -5.4826 C.3     1  UNL1        0.2383
      7 C          17.9150   70.1997   -4.5339 C.3     1  UNL1        0.1895
      8 O          16.7297   69.4040   -4.5703 O.3     1  UNL1       -0.3779
      9 C          18.0829   70.8794   -3.1502 C.3     1  UNL1        0.1713
     10 C          18.5742   72.3003   -3.4882 C.3     1  UNL1        0.1764
     11 O          18.7117   72.3787   -4.9173 O.3     1  UNL1       -0.3308
     12 O          16.8318   70.9265   -2.4607 O.3     1  UNL1       -0.3794
     13 H          16.8693   68.6654   -3.9617 H       1  UNL1        0.2106
     14 H          16.5493   70.0113   -2.3320 H       1  UNL1        0.2105
     15 N          18.1959   71.0596   -6.8432 N.ar    1  UNL1       -0.2551
     16 C          17.2625   70.6938   -7.7390 C.ar    1  UNL1        0.3323
     17 N          17.6030   70.3623   -8.9985 N.ar    1  UNL1       -0.2743
     18 C          18.8957   70.3835   -9.3809 C.ar    1  UNL1        0.2626
     19 C          19.8891   70.7609   -8.4463 C.ar    1  UNL1        0.0795
     20 C          19.5194   71.0937   -7.1910 C.ar    1  UNL1        0.0869
     21 O          16.0924   70.6699   -7.4092 O.2     1  UNL1       -0.2464
     22 O          19.2051   70.0793  -10.5181 O.2     1  UNL1       -0.2670
     23 H          16.9161   70.1055   -9.6329 H       1  UNL1        0.1734
     24 O          21.1800   71.2002   -1.0229 O.3     1  UNL1       -0.2703
     25 P          22.3114   70.6391   -0.0256 P.3     1  UNL1        0.2208
     26 O          23.4815   70.1885   -0.8108 O.2     1  UNL1       -0.5170
     27 O          21.7202   69.3994    0.8146 O.3     1  UNL1       -0.4371
     28 O          22.7621   71.8057    0.9875 O.3     1  UNL1       -0.2865
     29 C          21.8966   72.9175    0.7507 C.3     1  UNL1        0.2611
     30 C          22.7386   74.1536    0.4298 C.3     1  UNL1        0.1582
     31 C          23.6775   74.4400    1.6071 C.3     1  UNL1        0.1625
     32 C          22.8424   74.5346    2.8883 C.3     1  UNL1        0.1686
     33 C          21.9947   73.2681    3.0254 C.3     1  UNL1        0.1760
     34 O          24.3612   75.6747    1.3849 O.3     1  UNL1       -0.3801
     35 O          23.7105   74.6548    4.0169 O.3     1  UNL1       -0.3794
     36 O          21.1071   73.1594    1.9133 O.3     1  UNL1       -0.3263
     37 H          24.9396   75.8150    2.1473 H       1  UNL1        0.2105
     38 H          23.1449   74.7105    4.8001 H       1  UNL1        0.2105
     39 C          23.1701   74.4786   -1.9456 C.2     1  UNL1        0.2231
     40 C          23.9827   74.2254   -3.1897 C.3     1  UNL1        0.0946
     41 N          23.5280   73.9084   -0.7789 N.am    1  UNL1       -0.2994
     42 O          22.1933   75.1953   -1.9949 O.2     1  UNL1       -0.2751
     43 H          24.3095   73.3346   -0.7393 H       1  UNL1        0.1496
     44 C          21.1808   73.3382    4.3191 C.3     1  UNL1        0.1693
     45 O          21.8688   72.6327    5.3540 O.3     1  UNL1       -0.3794
     46 H          21.3235   72.7009    6.1494 H       1  UNL1        0.2105
@<TRIPOS>BOND
     1    29    30    1
     2    29    28    1
     3    29    36    1
     4    30    31    1
     5    30    41    1
     6    31    32    1
     7    31    34    1
     8    32    33    1
     9    32    35    1
    10    33    44    1
    11    33    36    1
    12    44    45    1
    13    39    40    1
    14    39    41   am
    15    39    42    2
    16    41    43    1
    17    28    25    1
    18    34    37    1
    19    35    38    1
    20    45    46    1
    21    15    16   ar
    22    15    20   ar
    23    15     6    1
    24    16    17   ar
    25    16    21    2
    26    17    18   ar
    27    17    23    1
    28    18    19   ar
    29    18    22    2
    30    19    20   ar
    31     6     7    1
    32     6    11    1
    33     7     8    1
    34     7     9    1
    35     8    13    1
    36     9    10    1
    37     9    12    1
    38    10    11    1
    39    10     5    1
    40    12    14    1
    41     5     4    1
    42     4     1    1
    43     1     2    2
    44     1     3    1
    45     1    24    1
    46    24    25    1
    47    25    26    2
    48    25    27    1
@<TRIPOS>MOLECULE
UD1
 46 48 0 0 0
SMALL
GASTEIGER

@<TRIPOS>ATOM
      1 P          21.8282   70.4315   -0.4247 P.3     1  UNL1        0.2189
      2 O          23.1519   70.6085   -1.0614 O.2     1  UNL1       -0.5170
      3 O          21.9339   69.3168    0.7324 O.3     1  UNL1       -0.4371
      4 O          20.7604   69.9549   -1.5317 O.3     1  UNL1       -0.3112
      5 C          20.9011   70.8345   -2.6483 C.3     1  UNL1        0.1811
      6 C          18.3675   71.0524   -5.1901 C.3     1  UNL1        0.2383
      7 C          18.0796   69.7118   -4.4689 C.3     1  UNL1        0.1895
      8 O          16.6845   69.4078   -4.4931 O.3     1  UNL1       -0.3779
      9 C          18.5558   70.0107   -3.0235 C.3     1  UNL1        0.1713
     10 C          19.5176   71.2038   -3.1855 C.3     1  UNL1        0.1764
     11 O          19.6015   71.5004   -4.5898 O.3     1  UNL1       -0.3308
     12 O          17.4465   70.3631   -2.1940 O.3     1  UNL1       -0.3794
     13 H          16.5733   68.5655   -4.0308 H       1  UNL1        0.2106
     14 H          16.8540   69.5996   -2.1809 H       1  UNL1        0.2105
     15 N          18.5396   70.8422   -6.6280 N.ar    1  UNL1       -0.2551
     16 C          17.4603   70.7936   -7.4281 C.ar    1  UNL1        0.3323
     17 N          17.5889   70.6054   -8.7548 N.ar    1  UNL1       -0.2743
     18 C          18.8107   70.4524   -9.3041 C.ar    1  UNL1        0.2626
     19 C          19.9550   70.4955   -8.4726 C.ar    1  UNL1        0.0795
     20 C          19.7976   70.6909   -7.1458 C.ar    1  UNL1        0.0869
     21 O          16.3516   70.9300   -6.9475 O.2     1  UNL1       -0.2464
     22 O          18.9278   70.2774  -10.5029 O.2     1  UNL1       -0.2670
     23 H          16.7998   70.5778   -9.3176 H       1  UNL1        0.1734
     24 O          21.3498   71.8278    0.2159 O.3     1  UNL1       -0.2703
     25 P          22.0109   71.9181    1.6802 P.3     1  UNL1        0.2208
     26 O          22.9781   70.8121    1.8537 O.2     1  UNL1       -0.5170
     27 O          20.8581   71.8023    2.7982 O.3     1  UNL1       -0.4371
     28 O          22.7724   73.3269    1.8406 O.3     1  UNL1       -0.2865
     29 C          22.1559   74.0092    2.9340 C.3     1  UNL1        0.2611
     30 C          21.8573   75.4527    2.5249 C.3     1  UNL1        0.1582
     31 C          23.1673   76.1418    2.1264 C.3     1  UNL1        0.1625
     32 C          24.1726   75.9834    3.2720 C.3     1  UNL1        0.1686
     33 C          24.2987   74.4994    3.6228 C.3     1  UNL1        0.1760
     34 O          22.9246   77.5292    1.8863 O.3     1  UNL1       -0.3801
     35 O          25.4452   76.4895    2.8645 O.3     1  UNL1       -0.3794
     36 O          23.0352   73.9974    4.0565 O.3     1  UNL1       -0.3263
     37 H          23.7729   77.9225    1.6389 H       1  UNL1        0.2105
     38 H          26.0466   76.3697    3.6132 H       1  UNL1        0.2105
     39 C          19.6464   75.8105    1.5667 C.2     1  UNL1        0.2231
     40 C          18.6965   75.8161    0.3962 C.3     1  UNL1        0.0946
     41 N          20.9343   75.4587    1.3881 N.am    1  UNL1       -0.2994
     42 O          19.2511   76.1220    2.6698 O.2     1  UNL1       -0.2751
     43 H          21.2509   75.2091    0.5054 H       1  UNL1        0.1496
     44 C          25.3251   74.3271    4.7444 C.3     1  UNL1        0.1693
     45 O          25.7763   75.6115    5.1791 O.3     1  UNL1       -0.3794
     46 H          26.4199   75.4581    5.8840 H       1  UNL1        0.2105
@<TRIPOS>BOND
     1    29    30    1
     2    29    28    1
     3    29    36    1
     4    30    31    1
     5    30    41    1
     6    31    32    1
     7    31    34    1
     8    32    33    1
     9    32    35    1
    10    33    44    1
    11    33    36    1
    12    44    45    1
    13    39    40    1
    14    39    41   am
    15    39    42    2
    16    41    43    1
    17    28    25    1
    18    34    37    1
    19    35    38    1
    20    45    46    1
    21    15    16   ar
    22    15    20   ar
    23    15     6    1
    24    16    17   ar
    25    16    21    2
    26    17    18   ar
    27    17    23    1
    28    18    19   ar
    29    18    22    2
    30    19    20   ar
    31     6     7    1
    32     6    11    1
    33     7     8    1
    34     7     9    1
    35     8    13    1
    36     9    10    1
    37     9    12    1
    38    10    11    1
    39    10     5    1
    40    12    14    1
    41     5     4    1
    42     4     1    1
    43     1     2    2
    44     1     3    1
    45     1    24    1
    46    24    25    1
    47    25    26    2
    48    25    27    1
@<TRIPOS>MOLECULE
UD1
 46 48 0 0 0
SMALL
GASTEIGER

@<TRIPOS>ATOM
      1 P          22.4398   71.3158   -2.4170 P.3     1  UNL1        0.2189
      2 O          23.5313   70.7470   -3.2379 O.2     1  UNL1       -0.5170
      3 O          22.2539   70.4316   -1.0842 O.3     1  UNL1       -0.4371
      4 O          21.0700   71.3032   -3.2635 O.3     1  UNL1       -0.3112
      5 C          20.1529   72.1584   -2.5795 C.3     1  UNL1        0.1811
      6 C          17.9087   71.3908   -5.2816 C.3     1  UNL1        0.2383
      7 C          17.9173   70.1109   -4.4087 C.3     1  UNL1        0.1895
      8 O          16.6613   69.4352   -4.4799 O.3     1  UNL1       -0.3779
      9 C          18.1562   70.6869   -2.9887 C.3     1  UNL1        0.1713
     10 C          18.7793   72.0724   -3.2466 C.3     1  UNL1        0.1764
     11 O          18.9166   72.2235   -4.6698 O.3     1  UNL1       -0.3308
     12 O          16.9187   70.8109   -2.2844 O.3     1  UNL1       -0.3794
     13 H          16.7327   68.6512   -3.9179 H       1  UNL1        0.2106
     14 H          16.5507   69.9206   -2.2075 H       1  UNL1        0.2105
     15 N          18.2678   71.0781   -6.6654 N.ar    1  UNL1       -0.2551
     16 C          17.2995   70.8535   -7.5705 C.ar    1  UNL1        0.3323
     17 N          17.6005   70.5677   -8.8511 N.ar    1  UNL1       -0.2743
     18 C          18.8875   70.4928   -9.2462 C.ar    1  UNL1        0.2626
     19 C          19.9169   70.7211   -8.3022 C.ar    1  UNL1        0.0795
     20 C          19.5868   71.0112   -7.0255 C.ar    1  UNL1        0.0869
     21 O          16.1341   70.9176   -7.2295 O.2     1  UNL1       -0.2464
     22 O          19.1609   70.2297  -10.4027 O.2     1  UNL1       -0.2670
     23 H          16.8892   70.4133   -9.4917 H       1  UNL1        0.1734
     24 O          22.8058   72.8292   -2.0114 O.3     1  UNL1       -0.2703
     25 P          23.3094   73.5611   -3.3531 P.3     1  UNL1        0.2208
     26 O          23.9398   72.5676   -4.2500 O.2     1  UNL1       -0.5170
     27 O          24.3841   74.6984   -2.9737 O.3     1  UNL1       -0.4371
     28 O          22.0547   74.2382   -4.0998 O.3     1  UNL1       -0.2865
     29 C          22.5627   75.3512   -4.8377 C.3     1  UNL1        0.2611
     30 C          21.5450   76.4924   -4.7947 C.3     1  UNL1        0.1582
     31 C          20.2205   76.0057   -5.3932 C.3     1  UNL1        0.1625
     32 C          20.4946   75.4286   -6.7860 C.3     1  UNL1        0.1686
     33 C          21.5896   74.3652   -6.6782 C.3     1  UNL1        0.1760
     34 O          19.3100   77.1020   -5.4962 O.3     1  UNL1       -0.3801
     35 O          19.3007   74.8367   -7.3016 O.3     1  UNL1       -0.3794
     36 O          22.7917   74.9589   -6.1893 O.3     1  UNL1       -0.3263
     37 H          18.4925   76.7515   -5.8760 H       1  UNL1        0.2105
     38 H          19.5178   74.4861   -8.1771 H       1  UNL1        0.2105
     39 C          20.3168   76.3847   -2.6937 C.2     1  UNL1        0.2231
     40 C          20.0986   76.8129   -1.2650 C.3     1  UNL1        0.0946
     41 N          21.3329   76.9077   -3.4066 N.am    1  UNL1       -0.2994
     42 O          19.5771   75.5695   -3.2020 O.2     1  UNL1       -0.2751
     43 H          21.9249   77.5603   -3.0001 H       1  UNL1        0.1496
     44 C          21.8482   73.7594   -8.0592 C.3     1  UNL1        0.1693
     45 O          23.2278   73.4048   -8.1735 O.3     1  UNL1       -0.3794
     46 H          23.3477   73.0282   -9.0558 H       1  UNL1        0.2105
@<TRIPOS>BOND
     1    29    30    1
     2    29    28    1
     3    29    36    1
     4    30    31    1
     5    30    41    1
     6    31    32    1
     7    31    34    1
     8    32    33    1
     9    32    35    1
    10    33    44    1
    11    33    36    1
    12    44    45    1
    13    39    40    1
    14    39    41   am
    15    39    42    2
    16    41    43    1
    17    28    25    1
    18    34    37    1
    19    35    38    1
    20    45    46    1
    21    15    16   ar
    22    15    20   ar
    23    15     6    1
    24    16    17   ar
    25    16    21    2
    26    17    18   ar
    27    17    23    1
    28    18    19   ar
    29    18    22    2
    30    19    20   ar
    31     6     7    1
    32     6    11    1
    33     7     8    1
    34     7     9    1
    35     8    13    1
    36     9    10    1
    37     9    12    1
    38    10    11    1
    39    10     5    1
    40    12    14    1
    41     5     4    1
    42     4     1    1
    43     1     2    2
    44     1     3    1
    45     1    24    1
    46    24    25    1
    47    25    26    2
    48    25    27    1
@<TRIPOS>MOLECULE
UD1
 46 48 0 0 0
SMALL
GASTEIGER

@<TRIPOS>ATOM
      1 P          21.8164   70.7546   -0.7904 P.3     1  UNL1        0.2189
      2 O          22.4789   70.2032   -1.9929 O.2     1  UNL1       -0.5170
      3 O          21.5636   69.5721    0.2728 O.3     1  UNL1       -0.4371
      4 O          20.4061   71.4097   -1.2083 O.3     1  UNL1       -0.3112
      5 C          20.5031   71.7538   -2.5912 C.3     1  UNL1        0.1811
      6 C          18.1047   71.2882   -5.2290 C.3     1  UNL1        0.2383
      7 C          18.0439   69.9730   -4.4124 C.3     1  UNL1        0.1895
      8 O          16.7361   69.4015   -4.4606 O.3     1  UNL1       -0.3779
      9 C          18.3812   70.4631   -2.9802 C.3     1  UNL1        0.1713
     10 C          19.1029   71.8060   -3.2043 C.3     1  UNL1        0.1764
     11 O          19.1982   72.0108   -4.6243 O.3     1  UNL1       -0.3308
     12 O          17.1850   70.6512   -2.2210 O.3     1  UNL1       -0.3794
     13 H          16.7657   68.5895   -3.9359 H       1  UNL1        0.2106
     14 H          16.7502   69.7897   -2.1670 H       1  UNL1        0.2105
     15 N          18.3853   71.0120   -6.6384 N.ar    1  UNL1       -0.2551
     16 C          17.3674   70.8175   -7.4948 C.ar    1  UNL1        0.3323
     17 N          17.5958   70.5656   -8.7973 N.ar    1  UNL1       -0.2743
     18 C          18.8587   70.4949   -9.2643 C.ar    1  UNL1        0.2626
     19 C          19.9398   70.6916   -8.3725 C.ar    1  UNL1        0.0795
     20 C          19.6821   70.9481   -7.0721 C.ar    1  UNL1        0.0869
     21 O          16.2228   70.8783   -7.0886 O.2     1  UNL1       -0.2464
     22 O          19.0665   70.2624  -10.4409 O.2     1  UNL1       -0.2670
     23 H          16.8495   70.4326   -9.4018 H       1  UNL1        0.1734
     24 O          22.7559   71.8808   -0.1288 O.3     1  UNL1       -0.2703
     25 P          21.9304   72.5117    1.1000 P.3     1  UNL1        0.2208
     26 O          21.2164   71.4340    1.8194 O.2     1  UNL1       -0.5170
     27 O          20.8640   73.5795    0.5390 O.3     1  UNL1       -0.4371
     28 O          22.9458   73.2485    2.1082 O.3     1  UNL1       -0.2865
     29 C          22.6147   74.6382    2.0878 C.3     1  UNL1        0.2611
     30 C          23.8737   75.4530    1.7862 C.3     1  UNL1        0.1582
     31 C          24.9274   75.1636    2.8611 C.3     1  UNL1        0.1625
     32 C          24.3038   75.4128    4.2385 C.3     1  UNL1        0.1686
     33 C          23.0137   74.5985    4.3562 C.3     1  UNL1        0.1760
     34 O          26.0498   76.0282    2.6765 O.3     1  UNL1       -0.3801
     35 O          25.2200   75.0094    5.2580 O.3     1  UNL1       -0.3794
     36 O          22.0859   75.0181    3.3564 O.3     1  UNL1       -0.3263
     37 H          26.6863   75.8122    3.3719 H       1  UNL1        0.2105
     38 H          24.7881   75.1824    6.1066 H       1  UNL1        0.2105
     39 C          24.0348   75.7717   -0.6235 C.2     1  UNL1        0.2231
     40 C          24.5741   75.3835   -1.9766 C.3     1  UNL1        0.0946
     41 N          24.3977   75.0766    0.4717 N.am    1  UNL1       -0.2994
     42 O          23.2734   76.7097   -0.5206 O.2     1  UNL1       -0.2751
     43 H          25.0068   74.3257    0.3896 H       1  UNL1        0.1496
     44 C          22.3999   74.8152    5.7409 C.3     1  UNL1        0.1693
     45 O          21.9463   73.5644    6.2623 O.3     1  UNL1       -0.3794
     46 H          21.5673   73.7452    7.1331 H       1  UNL1        0.2105
@<TRIPOS>BOND
     1    29    30    1
     2    29    28    1
     3    29    36    1
     4    30    31    1
     5    30    41    1
     6    31    32    1
     7    31    34    1
     8    32    33    1
     9    32    35    1
    10    33    44    1
    11    33    36    1
    12    44    45    1
    13    39    40    1
    14    39    41   am
    15    39    42    2
    16    41    43    1
    17    28    25    1
    18    34    37    1
    19    35    38    1
    20    45    46    1
    21    15    16   ar
    22    15    20   ar
    23    15     6    1
    24    16    17   ar
    25    16    21    2
    26    17    18   ar
    27    17    23    1
    28    18    19   ar
    29    18    22    2
    30    19    20   ar
    31     6     7    1
    32     6    11    1
    33     7     8    1
    34     7     9    1
    35     8    13    1
    36     9    10    1
    37     9    12    1
    38    10    11    1
    39    10     5    1
    40    12    14    1
    41     5     4    1
    42     4     1    1
    43     1     2    2
    44     1     3    1
    45     1    24    1
    46    24    25    1
    47    25    26    2
    48    25    27    1
@<TRIPOS>MOLECULE
UD1
 46 48 0 0 0
SMALL
GASTEIGER

@<TRIPOS>ATOM
      1 P          22.8945   72.0258   -3.1185 P.3     1  UNL1        0.2189
      2 O          23.3046   70.6065   -3.1977 O.2     1  UNL1       -0.5170
      3 O          22.8603   72.4893   -1.5768 O.3     1  UNL1       -0.4371
      4 O          21.4284   72.1969   -3.7620 O.3     1  UNL1       -0.3112
      5 C          20.4871   71.8479   -2.7459 C.3     1  UNL1        0.1811
      6 C          18.0887   71.2187   -5.3495 C.3     1  UNL1        0.2383
      7 C          18.1098   69.9121   -4.5172 C.3     1  UNL1        0.1895
      8 O          16.8352   69.2688   -4.5433 O.3     1  UNL1       -0.3779
      9 C          18.4356   70.4374   -3.0948 C.3     1  UNL1        0.1713
     10 C          19.0794   71.8153   -3.3429 C.3     1  UNL1        0.1764
     11 O          19.1473   72.0077   -4.7661 O.3     1  UNL1       -0.3308
     12 O          17.2394   70.5685   -2.3237 O.3     1  UNL1       -0.3794
     13 H          16.9155   68.4661   -4.0096 H       1  UNL1        0.2106
     14 H          16.8535   69.6851   -2.2546 H       1  UNL1        0.2105
     15 N          18.3684   70.9412   -6.7589 N.ar    1  UNL1       -0.2551
     16 C          17.3504   70.7285   -7.6108 C.ar    1  UNL1        0.3323
     17 N          17.5780   70.4750   -8.9132 N.ar    1  UNL1       -0.2743
     18 C          18.8401   70.4212   -9.3845 C.ar    1  UNL1        0.2626
     19 C          19.9213   70.6373   -8.4974 C.ar    1  UNL1        0.0795
     20 C          19.6644   70.8949   -7.1970 C.ar    1  UNL1        0.0869
     21 O          16.2065   70.7739   -7.2008 O.2     1  UNL1       -0.2464
     22 O          19.0471   70.1873  -10.5609 O.2     1  UNL1       -0.2670
     23 H          16.8315   70.3287   -9.5145 H       1  UNL1        0.1734
     24 O          23.9459   72.9343   -3.9298 O.3     1  UNL1       -0.2703
     25 P          23.3856   74.4422   -3.8891 P.3     1  UNL1        0.2208
     26 O          22.5967   74.6420   -2.6536 O.2     1  UNL1       -0.5170
     27 O          22.4477   74.7017   -5.1717 O.3     1  UNL1       -0.4371
     28 O          24.6197   75.4753   -3.9107 O.3     1  UNL1       -0.2865
     29 C          25.7295   74.8079   -3.3073 C.3     1  UNL1        0.2611
     30 C          26.2195   75.6241   -2.1100 C.3     1  UNL1        0.1582
     31 C          26.6243   77.0229   -2.5888 C.3     1  UNL1        0.1625
     32 C          27.6317   76.8764   -3.7341 C.3     1  UNL1        0.1686
     33 C          27.0338   75.9679   -4.8105 C.3     1  UNL1        0.1760
     34 O          27.2223   77.7438   -1.5099 O.3     1  UNL1       -0.3801
     35 O          27.9107   78.1616   -4.2925 O.3     1  UNL1       -0.3794
     36 O          26.7792   74.6748   -4.2632 O.3     1  UNL1       -0.3263
     37 H          27.4607   78.6155   -1.8545 H       1  UNL1        0.2105
     38 H          28.5468   78.0234   -5.0086 H       1  UNL1        0.2105
     39 C          25.4259   75.6406    0.1932 C.2     1  UNL1        0.2231
     40 C          24.3199   75.7553    1.2110 C.3     1  UNL1        0.0946
     41 N          25.1455   75.7360   -1.1208 N.am    1  UNL1       -0.2994
     42 O          26.5686   75.4618    0.5571 O.2     1  UNL1       -0.2751
     43 H          24.2311   75.8789   -1.4123 H       1  UNL1        0.1496
     44 C          28.0192   75.8412   -5.9742 C.3     1  UNL1        0.1693
     45 O          27.2961   75.6665   -7.1943 O.3     1  UNL1       -0.3794
     46 H          27.9525   75.5907   -7.9001 H       1  UNL1        0.2105
@<TRIPOS>BOND
     1    29    30    1
     2    29    28    1
     3    29    36    1
     4    30    31    1
     5    30    41    1
     6    31    32    1
     7    31    34    1
     8    32    33    1
     9    32    35    1
    10    33    44    1
    11    33    36    1
    12    44    45    1
    13    39    40    1
    14    39    41   am
    15    39    42    2
    16    41    43    1
    17    28    25    1
    18    34    37    1
    19    35    38    1
    20    45    46    1
    21    15    16   ar
    22    15    20   ar
    23    15     6    1
    24    16    17   ar
    25    16    21    2
    26    17    18   ar
    27    17    23    1
    28    18    19   ar
    29    18    22    2
    30    19    20   ar
    31     6     7    1
    32     6    11    1
    33     7     8    1
    34     7     9    1
    35     8    13    1
    36     9    10    1
    37     9    12    1
    38    10    11    1
    39    10     5    1
    40    12    14    1
    41     5     4    1
    42     4     1    1
    43     1     2    2
    44     1     3    1
    45     1    24    1
    46    24    25    1
    47    25    26    2
    48    25    27    1
@<TRIPOS>MOLECULE
UD1
 46 48 0 0 0
SMALL
GASTEIGER

@<TRIPOS>ATOM
      1 P          19.6584   73.7463   -3.3742 P.3     1  UNL1        0.2189
      2 O          18.6312   74.5891   -4.0248 O.2     1  UNL1       -0.5170
      3 O          19.2322   72.1977   -3.4869 O.3     1  UNL1       -0.4371
      4 O          19.7834   74.1559   -1.8220 O.3     1  UNL1       -0.3112
      5 C          19.8409   72.9390   -1.0761 C.3     1  UNL1        0.1811
      6 C          22.5467   72.4847    1.2475 C.3     1  UNL1        0.2383
      7 C          21.9802   71.0595    1.0279 C.3     1  UNL1        0.1895
      8 O          23.0068   70.0756    1.1592 O.3     1  UNL1       -0.3779
      9 C          21.4689   71.1341   -0.4344 C.3     1  UNL1        0.1713
     10 C          21.2915   72.6429   -0.6924 C.3     1  UNL1        0.1764
     11 O          21.6248   73.3293    0.5262 O.3     1  UNL1       -0.3308
     12 O          22.4327   70.5766   -1.3305 O.3     1  UNL1       -0.3794
     13 H          22.5904   69.2150    1.0122 H       1  UNL1        0.2106
     14 H          22.5432   69.6496   -1.0803 H       1  UNL1        0.2105
     15 N          22.5550   72.8268    2.6703 N.ar    1  UNL1       -0.2551
     16 C          21.4991   72.5073    3.4386 C.ar    1  UNL1        0.3323
     17 N          21.4812   72.8062    4.7511 N.ar    1  UNL1       -0.2743
     18 C          22.5258   73.4434    5.3172 C.ar    1  UNL1        0.2626
     19 C          23.6414   73.7910    4.5187 C.ar    1  UNL1        0.0795
     20 C          23.6355   73.4745    3.2060 C.ar    1  UNL1        0.0869
     21 O          20.5494   71.9323    2.9426 O.2     1  UNL1       -0.2464
     22 O          22.5087   73.7184    6.5027 O.2     1  UNL1       -0.2670
     23 H          20.7132   72.5640    5.2913 H       1  UNL1        0.1734
     24 O          21.0754   73.9684   -4.1034 O.3     1  UNL1       -0.2703
     25 P          21.3076   72.6989   -5.0645 P.3     1  UNL1        0.2208
     26 O          21.3184   71.4616   -4.2534 O.2     1  UNL1       -0.5170
     27 O          22.7175   72.8525   -5.8265 O.3     1  UNL1       -0.4371
     28 O          20.1197   72.6199   -6.1477 O.3     1  UNL1       -0.2865
     29 C          20.1767   71.3170   -6.7311 C.3     1  UNL1        0.2611
     30 C          20.1695   71.4455   -8.2554 C.3     1  UNL1        0.1582
     31 C          18.8953   72.1780   -8.6907 C.3     1  UNL1        0.1625
     32 C          17.6849   71.4541   -8.0916 C.3     1  UNL1        0.1686
     33 C          17.8782   71.3277   -6.5790 C.3     1  UNL1        0.1760
     34 O          18.8033   72.1727  -10.1165 O.3     1  UNL1       -0.3801
     35 O          16.4983   72.2026   -8.3623 O.3     1  UNL1       -0.3794
     36 O          19.0477   70.5572   -6.3051 O.3     1  UNL1       -0.3263
     37 H          17.9898   72.6427  -10.3457 H       1  UNL1        0.2105
     38 H          15.7626   71.7128   -7.9680 H       1  UNL1        0.2105
     39 C          21.2523   73.5337   -8.8888 C.2     1  UNL1        0.2231
     40 C          22.4617   74.3149   -9.3353 C.3     1  UNL1        0.0946
     41 N          21.3442   72.2049   -8.6886 N.am    1  UNL1       -0.2994
     42 O          20.1958   74.1014   -8.7105 O.2     1  UNL1       -0.2751
     43 H          22.1895   71.7504   -8.8315 H       1  UNL1        0.1496
     44 C          16.6593   70.6347   -5.9665 C.3     1  UNL1        0.1693
     45 O          16.1812   69.6302   -6.8635 O.3     1  UNL1       -0.3794
     46 H          15.4150   69.2193   -6.4408 H       1  UNL1        0.2105
@<TRIPOS>BOND
     1    29    30    1
     2    29    28    1
     3    29    36    1
     4    30    31    1
     5    30    41    1
     6    31    32    1
     7    31    34    1
     8    32    33    1
     9    32    35    1
    10    33    44    1
    11    33    36    1
    12    44    45    1
    13    39    40    1
    14    39    41   am
    15    39    42    2
    16    41    43    1
    17    28    25    1
    18    34    37    1
    19    35    38    1
    20    45    46    1
    21    15    16   ar
    22    15    20   ar
    23    15     6    1
    24    16    17   ar
    25    16    21    2
    26    17    18   ar
    27    17    23    1
    28    18    19   ar
    29    18    22    2
    30    19    20   ar
    31     6     7    1
    32     6    11    1
    33     7     8    1
    34     7     9    1
    35     8    13    1
    36     9    10    1
    37     9    12    1
    38    10    11    1
    39    10     5    1
    40    12    14    1
    41     5     4    1
    42     4     1    1
    43     1     2    2
    44     1     3    1
    45     1    24    1
    46    24    25    1
    47    25    26    2
    48    25    27    1
@<TRIPOS>MOLECULE
UD1
 46 48 0 0 0
SMALL
GASTEIGER

@<TRIPOS>ATOM
      1 P          22.8918   72.1791   -3.5184 P.3     1  UNL1        0.2189
      2 O          22.3608   72.7833   -2.2767 O.2     1  UNL1       -0.5170
      3 O          23.3924   70.6793   -3.2140 O.3     1  UNL1       -0.4371
      4 O          24.1294   73.0582   -4.0556 O.3     1  UNL1       -0.3112
      5 C          23.7985   74.4273   -3.8179 C.3     1  UNL1        0.1811
      6 C          27.2212   75.5253   -3.9030 C.3     1  UNL1        0.2383
      7 C          26.4259   76.6822   -4.5582 C.3     1  UNL1        0.1895
      8 O          27.0601   77.9389   -4.3176 O.3     1  UNL1       -0.3779
      9 C          25.0639   76.5995   -3.8212 C.3     1  UNL1        0.1713
     10 C          25.0233   75.1612   -3.2698 C.3     1  UNL1        0.1764
     11 O          26.2242   74.5005   -3.7042 O.3     1  UNL1       -0.3308
     12 O          25.0124   77.5519   -2.7567 O.3     1  UNL1       -0.3794
     13 H          26.5183   78.6134   -4.7499 H       1  UNL1        0.2106
     14 H          25.1023   78.4259   -3.1594 H       1  UNL1        0.2105
     15 N          28.2784   75.0505   -4.7964 N.ar    1  UNL1       -0.2551
     16 C          29.3664   74.4514   -4.2819 C.ar    1  UNL1        0.3323
     17 N          30.3526   74.0014   -5.0800 N.ar    1  UNL1       -0.2743
     18 C          30.2676   74.1539   -6.4170 C.ar    1  UNL1        0.2626
     19 C          29.1305   74.7882   -6.9716 C.ar    1  UNL1        0.0795
     20 C          28.1536   75.2254   -6.1483 C.ar    1  UNL1        0.0869
     21 O          29.4575   74.3064   -3.0780 O.2     1  UNL1       -0.2464
     22 O          31.1609   73.7517   -7.1393 O.2     1  UNL1       -0.2670
     23 H          31.1280   73.5674   -4.6921 H       1  UNL1        0.1734
     24 O          21.7344   72.1433   -4.6354 O.3     1  UNL1       -0.2703
     25 P          20.4715   71.3983   -3.9726 P.3     1  UNL1        0.2208
     26 O          20.0090   72.1650   -2.7948 O.2     1  UNL1       -0.5170
     27 O          20.9023   69.9169   -3.5122 O.3     1  UNL1       -0.4371
     28 O          19.2796   71.2986   -5.0496 O.3     1  UNL1       -0.2865
     29 C          19.1345   72.5966   -5.6286 C.3     1  UNL1        0.2611
     30 C          17.6726   73.0349   -5.5260 C.3     1  UNL1        0.1582
     31 C          16.7912   72.0152   -6.2559 C.3     1  UNL1        0.1625
     32 C          17.3212   71.8420   -7.6832 C.3     1  UNL1        0.1686
     33 C          18.8093   71.4906   -7.6230 C.3     1  UNL1        0.1760
     34 O          15.4438   72.4889   -6.2962 O.3     1  UNL1       -0.3801
     35 O          16.6063   70.7900   -8.3342 O.3     1  UNL1       -0.3794
     36 O          19.5303   72.5517   -6.9979 O.3     1  UNL1       -0.3263
     37 H          14.9257   71.8184   -6.7625 H       1  UNL1        0.2105
     38 H          16.9715   70.7144   -9.2272 H       1  UNL1        0.2105
     39 C          16.6428   72.0646   -3.5430 C.2     1  UNL1        0.2231
     40 C          16.2379   72.1360   -2.0927 C.3     1  UNL1        0.0946
     41 N          17.2795   73.1035   -4.1170 N.am    1  UNL1       -0.2994
     42 O          16.3948   71.0720   -4.1935 O.2     1  UNL1       -0.2751
     43 H          17.4779   73.8981   -3.5967 H       1  UNL1        0.1496
     44 C          19.3410   71.2835   -9.0427 C.3     1  UNL1        0.1693
     45 O          18.5007   71.9714   -9.9716 O.3     1  UNL1       -0.3794
     46 H          18.8697   71.8154  -10.8514 H       1  UNL1        0.2105
@<TRIPOS>BOND
     1    29    30    1
     2    29    28    1
     3    29    36    1
     4    30    31    1
     5    30    41    1
     6    31    32    1
     7    31    34    1
     8    32    33    1
     9    32    35    1
    10    33    44    1
    11    33    36    1
    12    44    45    1
    13    39    40    1
    14    39    41   am
    15    39    42    2
    16    41    43    1
    17    28    25    1
    18    34    37    1
    19    35    38    1
    20    45    46    1
    21    15    16   ar
    22    15    20   ar
    23    15     6    1
    24    16    17   ar
    25    16    21    2
    26    17    18   ar
    27    17    23    1
    28    18    19   ar
    29    18    22    2
    30    19    20   ar
    31     6     7    1
    32     6    11    1
    33     7     8    1
    34     7     9    1
    35     8    13    1
    36     9    10    1
    37     9    12    1
    38    10    11    1
    39    10     5    1
    40    12    14    1
    41     5     4    1
    42     4     1    1
    43     1     2    2
    44     1     3    1
    45     1    24    1
    46    24    25    1
    47    25    26    2
    48    25    27    1
@<TRIPOS>MOLECULE
UD1
 46 48 0 0 0
SMALL
GASTEIGER

@<TRIPOS>ATOM
      1 P          21.2692   70.5647   -2.9734 P.3     1  UNL1        0.2189
      2 O          22.6697   70.7121   -3.4271 O.2     1  UNL1       -0.5170
      3 O          20.9757   69.0190   -2.6313 O.3     1  UNL1       -0.4371
      4 O          20.2733   71.0535   -4.1405 O.3     1  UNL1       -0.3112
      5 C          19.3535   71.9688   -3.5433 C.3     1  UNL1        0.1811
      6 C          16.6907   71.9634   -5.9592 C.3     1  UNL1        0.2383
      7 C          17.3974   70.5990   -6.1574 C.3     1  UNL1        0.1895
      8 O          16.4728   69.6036   -6.5971 O.3     1  UNL1       -0.3779
      9 C          17.9086   70.2862   -4.7270 C.3     1  UNL1        0.1713
     10 C          17.9369   71.6606   -4.0307 C.3     1  UNL1        0.1764
     11 O          17.5290   72.6415   -4.9995 O.3     1  UNL1       -0.3308
     12 O          17.0109   69.3977   -4.0581 O.3     1  UNL1       -0.3794
     13 H          16.9735   68.7826   -6.7014 H       1  UNL1        0.2106
     14 H          16.9914   68.5803   -4.5734 H       1  UNL1        0.2105
     15 N          16.6389   72.7091   -7.2173 N.ar    1  UNL1       -0.2551
     16 C          17.6423   72.5902   -8.1041 C.ar    1  UNL1        0.3323
     17 N          17.6192   73.2612   -9.2709 N.ar    1  UNL1       -0.2743
     18 C          16.5862   74.0758   -9.5660 C.ar    1  UNL1        0.2626
     19 C          15.5261   74.2149   -8.6387 C.ar    1  UNL1        0.0795
     20 C          15.5721   73.5261   -7.4782 C.ar    1  UNL1        0.0869
     21 O          18.5809   71.8592   -7.8524 O.2     1  UNL1       -0.2464
     22 O          16.5666   74.6866  -10.6185 O.2     1  UNL1       -0.2670
     23 H          18.3492   73.1598   -9.9010 H       1  UNL1        0.1734
     24 O          21.0343   71.4605   -1.6576 O.3     1  UNL1       -0.2703
     25 P          22.0548   70.9184   -0.5378 P.3     1  UNL1        0.2208
     26 O          23.3014   70.4581   -1.1881 O.2     1  UNL1       -0.5170
     27 O          21.3794   69.6910    0.2556 O.3     1  UNL1       -0.4371
     28 O          22.3955   72.1024    0.4979 O.3     1  UNL1       -0.2865
     29 C          21.1525   72.5427    1.0476 C.3     1  UNL1        0.2611
     30 C          21.0506   74.0630    0.9120 C.3     1  UNL1        0.1582
     31 C          22.2280   74.7119    1.6483 C.3     1  UNL1        0.1625
     32 C          22.2560   74.1861    3.0873 C.3     1  UNL1        0.1686
     33 C          22.2701   72.6563    3.0587 C.3     1  UNL1        0.1760
     34 O          22.0639   76.1312    1.6567 O.3     1  UNL1       -0.3801
     35 O          23.4293   74.6639    3.7480 O.3     1  UNL1       -0.3794
     36 O          21.0861   72.1750    2.4237 O.3     1  UNL1       -0.3263
     37 H          22.8246   76.4977    2.1282 H       1  UNL1        0.2105
     38 H          23.4074   74.3095    4.6482 H       1  UNL1        0.2105
     39 C          20.0041   74.9553   -1.0988 C.2     1  UNL1        0.2231
     40 C          20.0491   75.3350   -2.5569 C.3     1  UNL1        0.0946
     41 N          21.0939   74.4325   -0.5043 N.am    1  UNL1       -0.2994
     42 O          18.9864   75.1197   -0.4606 O.2     1  UNL1       -0.2751
     43 H          21.9085   74.3006   -1.0149 H       1  UNL1        0.1496
     44 C          22.3308   72.1212    4.4908 C.3     1  UNL1        0.1693
     45 O          21.4772   72.9032    5.3286 O.3     1  UNL1       -0.3794
     46 H          21.5449   72.5340    6.2195 H       1  UNL1        0.2105
@<TRIPOS>BOND
     1    29    30    1
     2    29    28    1
     3    29    36    1
     4    30    31    1
     5    30    41    1
     6    31    32    1
     7    31    34    1
     8    32    33    1
     9    32    35    1
    10    33    44    1
    11    33    36    1
    12    44    45    1
    13    39    40    1
    14    39    41   am
    15    39    42    2
    16    41    43    1
    17    28    25    1
    18    34    37    1
    19    35    38    1
    20    45    46    1
    21    15    16   ar
    22    15    20   ar
    23    15     6    1
    24    16    17   ar
    25    16    21    2
    26    17    18   ar
    27    17    23    1
    28    18    19   ar
    29    18    22    2
    30    19    20   ar
    31     6     7    1
    32     6    11    1
    33     7     8    1
    34     7     9    1
    35     8    13    1
    36     9    10    1
    37     9    12    1
    38    10    11    1
    39    10     5    1
    40    12    14    1
    41     5     4    1
    42     4     1    1
    43     1     2    2
    44     1     3    1
    45     1    24    1
    46    24    25    1
    47    25    26    2
    48    25    27    1
@<TRIPOS>MOLECULE
UD1
 46 48 0 0 0
SMALL
GASTEIGER

@<TRIPOS>ATOM
      1 P          18.9223   69.3322   -3.3728 P.3     1  UNL1        0.2189
      2 O          20.0237   69.9022   -4.1794 O.2     1  UNL1       -0.5170
      3 O          18.8557   67.7402   -3.6044 O.3     1  UNL1       -0.4371
      4 O          17.5273   69.9979   -3.8240 O.3     1  UNL1       -0.3112
      5 C          17.3903   71.2127   -3.0852 C.3     1  UNL1        0.1811
      6 C          17.6255   72.7526   -6.3257 C.3     1  UNL1        0.2383
      7 C          16.1124   72.4804   -6.1342 C.3     1  UNL1        0.1895
      8 O          15.3267   73.4591   -6.8154 O.3     1  UNL1       -0.3779
      9 C          15.9498   72.6120   -4.5975 C.3     1  UNL1        0.1713
     10 C          17.3746   72.3989   -4.0506 C.3     1  UNL1        0.1764
     11 O          18.2296   72.1263   -5.1740 O.3     1  UNL1       -0.3308
     12 O          15.4649   73.9121   -4.2552 O.3     1  UNL1       -0.3794
     13 H          14.3996   73.2333   -6.6576 H       1  UNL1        0.2106
     14 H          14.5993   74.0067   -4.6747 H       1  UNL1        0.2105
     15 N          18.1115   72.1382   -7.5617 N.ar    1  UNL1       -0.2551
     16 C          17.7968   70.8609   -7.8393 C.ar    1  UNL1        0.3323
     17 N          18.2267   70.2713   -8.9706 N.ar    1  UNL1       -0.2743
     18 C          18.9927   70.9551   -9.8444 C.ar    1  UNL1        0.2626
     19 C          19.3364   72.2985   -9.5617 C.ar    1  UNL1        0.0795
     20 C          18.8873   72.8671   -8.4223 C.ar    1  UNL1        0.0869
     21 O          17.1067   70.2312   -7.0610 O.2     1  UNL1       -0.2464
     22 O          19.3858   70.4215  -10.8653 O.2     1  UNL1       -0.2670
     23 H          17.9862   69.3507   -9.1570 H       1  UNL1        0.1734
     24 O          19.1838   69.6384   -1.8150 O.3     1  UNL1       -0.2703
     25 P          20.7073   70.1409   -1.6894 P.3     1  UNL1        0.2208
     26 O          21.5449   69.4280   -2.6788 O.2     1  UNL1       -0.5170
     27 O          21.2532   69.8356   -0.2058 O.3     1  UNL1       -0.4371
     28 O          20.7762   71.7243   -1.9697 O.3     1  UNL1       -0.2865
     29 C          22.1212   72.1324   -1.7135 C.3     1  UNL1        0.2611
     30 C          22.1202   73.2457   -0.6644 C.3     1  UNL1        0.1582
     31 C          21.2871   74.4229   -1.1837 C.3     1  UNL1        0.1625
     32 C          21.8171   74.8276   -2.5634 C.3     1  UNL1        0.1686
     33 C          21.8382   73.5954   -3.4703 C.3     1  UNL1        0.1760
     34 O          21.4007   75.5248   -0.2813 O.3     1  UNL1       -0.3801
     35 O          20.9645   75.8248   -3.1293 O.3     1  UNL1       -0.3794
     36 O          22.7104   72.6080   -2.9219 O.3     1  UNL1       -0.3263
     37 H          20.8624   76.2410   -0.6456 H       1  UNL1        0.2105
     38 H          21.3333   76.0495   -3.9952 H       1  UNL1        0.2105
     39 C          22.0956   73.0646    1.7647 C.2     1  UNL1        0.2231
     40 C          21.4954   72.5475    3.0471 C.3     1  UNL1        0.0946
     41 N          21.5372   72.7440    0.5817 N.am    1  UNL1       -0.2994
     42 O          23.0820   73.7689    1.7978 O.2     1  UNL1       -0.2751
     43 H          20.7479   72.1802    0.5549 H       1  UNL1        0.1496
     44 C          22.3355   73.9955   -4.8608 C.3     1  UNL1        0.1693
     45 O          23.1311   72.9403   -5.4045 O.3     1  UNL1       -0.3794
     46 H          23.4239   73.2324   -6.2783 H       1  UNL1        0.2105
@<TRIPOS>BOND
     1    29    30    1
     2    29    28    1
     3    29    36    1
     4    30    31    1
     5    30    41    1
     6    31    32    1
     7    31    34    1
     8    32    33    1
     9    32    35    1
    10    33    44    1
    11    33    36    1
    12    44    45    1
    13    39    40    1
    14    39    41   am
    15    39    42    2
    16    41    43    1
    17    28    25    1
    18    34    37    1
    19    35    38    1
    20    45    46    1
    21    15    16   ar
    22    15    20   ar
    23    15     6    1
    24    16    17   ar
    25    16    21    2
    26    17    18   ar
    27    17    23    1
    28    18    19   ar
    29    18    22    2
    30    19    20   ar
    31     6     7    1
    32     6    11    1
    33     7     8    1
    34     7     9    1
    35     8    13    1
    36     9    10    1
    37     9    12    1
    38    10    11    1
    39    10     5    1
    40    12    14    1
    41     5     4    1
    42     4     1    1
    43     1     2    2
    44     1     3    1
    45     1    24    1
    46    24    25    1
    47    25    26    2
    48    25    27    1
@<TRIPOS>MOLECULE
UD1
 46 48 0 0 0
SMALL
GASTEIGER

@<TRIPOS>ATOM
      1 P          22.8471   72.2573   -3.1609 P.3     1  UNL1        0.2189
      2 O          23.3244   70.8576   -3.2039 O.2     1  UNL1       -0.5170
      3 O          24.1069   73.2499   -3.0192 O.3     1  UNL1       -0.4371
      4 O          21.8677   72.4511   -1.8975 O.3     1  UNL1       -0.3112
      5 C          22.5238   73.3467   -0.9988 C.3     1  UNL1        0.1811
      6 C          22.5754   73.2176    2.5940 C.3     1  UNL1        0.2383
      7 C          21.1506   72.7464    2.2091 C.3     1  UNL1        0.1895
      8 O          20.6448   71.8142    3.1653 O.3     1  UNL1       -0.3779
      9 C          21.3938   72.0584    0.8406 C.3     1  UNL1        0.1713
     10 C          22.7265   72.6579    0.3517 C.3     1  UNL1        0.1764
     11 O          23.1502   73.6200    1.3325 O.3     1  UNL1       -0.3308
     12 O          21.5050   70.6429    1.0050 O.3     1  UNL1       -0.3794
     13 H          19.7593   71.5618    2.8692 H       1  UNL1        0.2106
     14 H          20.6633   70.3370    1.3683 H       1  UNL1        0.2105
     15 N          22.5158   74.3501    3.5188 N.ar    1  UNL1       -0.2551
     16 C          22.4725   74.1268    4.8438 C.ar    1  UNL1        0.3323
     17 N          22.4213   75.1495    5.7177 N.ar    1  UNL1       -0.2743
     18 C          22.4031   76.4224    5.2738 C.ar    1  UNL1        0.2626
     19 C          22.4422   76.6717    3.8812 C.ar    1  UNL1        0.0795
     20 C          22.4987   75.6275    3.0269 C.ar    1  UNL1        0.0869
     21 O          22.4883   72.9843    5.2596 O.2     1  UNL1       -0.2464
     22 O          22.3519   77.3477    6.0629 O.2     1  UNL1       -0.2670
     23 H          22.3954   74.9701    6.6703 H       1  UNL1        0.1734
     24 O          22.0475   72.5936   -4.5160 O.3     1  UNL1       -0.2703
     25 P          20.5449   72.0538   -4.3153 P.3     1  UNL1        0.2208
     26 O          19.8980   72.7953   -3.2105 O.2     1  UNL1       -0.5170
     27 O          20.5809   70.4842   -3.9585 O.3     1  UNL1       -0.4371
     28 O          19.7081   72.2751   -5.6723 O.3     1  UNL1       -0.2865
     29 C          20.6550   72.3145   -6.7414 C.3     1  UNL1        0.2611
     30 C          20.6050   73.6895   -7.4100 C.3     1  UNL1        0.1582
     31 C          19.1866   73.9408   -7.9339 C.3     1  UNL1        0.1625
     32 C          18.7792   72.7655   -8.8287 C.3     1  UNL1        0.1686
     33 C          18.9641   71.4602   -8.0519 C.3     1  UNL1        0.1760
     34 O          19.1631   75.1530   -8.6897 O.3     1  UNL1       -0.3801
     35 O          17.4092   72.9069   -9.2092 O.3     1  UNL1       -0.3794
     36 O          20.3365   71.3024   -7.6941 O.3     1  UNL1       -0.3263
     37 H          18.2545   75.2719   -8.9989 H       1  UNL1        0.2105
     38 H          17.1947   72.1476   -9.7695 H       1  UNL1        0.2105
     39 C          22.1958   75.2519   -6.4289 C.2     1  UNL1        0.2231
     40 C          22.5583   76.3145   -5.4231 C.3     1  UNL1        0.0946
     41 N          20.9574   74.7221   -6.4334 N.am    1  UNL1       -0.2994
     42 O          23.0195   74.8731   -7.2341 O.2     1  UNL1       -0.2751
     43 H          20.2982   75.0249   -5.7890 H       1  UNL1        0.1496
     44 C          18.5290   70.2821   -8.9259 C.3     1  UNL1        0.1693
     45 O          18.7349   70.6077  -10.3020 O.3     1  UNL1       -0.3794
     46 H          18.4487   69.8411  -10.8168 H       1  UNL1        0.2105
@<TRIPOS>BOND
     1    29    30    1
     2    29    28    1
     3    29    36    1
     4    30    31    1
     5    30    41    1
     6    31    32    1
     7    31    34    1
     8    32    33    1
     9    32    35    1
    10    33    44    1
    11    33    36    1
    12    44    45    1
    13    39    40    1
    14    39    41   am
    15    39    42    2
    16    41    43    1
    17    28    25    1
    18    34    37    1
    19    35    38    1
    20    45    46    1
    21    15    16   ar
    22    15    20   ar
    23    15     6    1
    24    16    17   ar
    25    16    21    2
    26    17    18   ar
    27    17    23    1
    28    18    19   ar
    29    18    22    2
    30    19    20   ar
    31     6     7    1
    32     6    11    1
    33     7     8    1
    34     7     9    1
    35     8    13    1
    36     9    10    1
    37     9    12    1
    38    10    11    1
    39    10     5    1
    40    12    14    1
    41     5     4    1
    42     4     1    1
    43     1     2    2
    44     1     3    1
    45     1    24    1
    46    24    25    1
    47    25    26    2
    48    25    27    1
@<TRIPOS>MOLECULE
UD1
 46 48 0 0 0
SMALL
GASTEIGER

@<TRIPOS>ATOM
      1 P          21.8688   71.2648   -2.9246 P.3     1  UNL1        0.2189
      2 O          21.9127   69.9544   -2.2392 O.2     1  UNL1       -0.5170
      3 O          23.3468   71.6560   -3.4297 O.3     1  UNL1       -0.4371
      4 O          21.3379   72.3881   -1.9003 O.3     1  UNL1       -0.3112
      5 C          22.4919   73.0275   -1.3528 C.3     1  UNL1        0.1811
      6 C          22.6878   73.2622    2.2296 C.3     1  UNL1        0.2383
      7 C          21.2584   72.7326    1.9529 C.3     1  UNL1        0.1895
      8 O          20.8090   71.8939    3.0177 O.3     1  UNL1       -0.3779
      9 C          21.4608   71.9139    0.6513 C.3     1  UNL1        0.1713
     10 C          22.7611   72.4817    0.0503 C.3     1  UNL1        0.1764
     11 O          23.2043   73.5442    0.9116 O.3     1  UNL1       -0.3308
     12 O          21.6059   70.5242    0.9518 O.3     1  UNL1       -0.3794
     13 H          19.9176   71.5992    2.7851 H       1  UNL1        0.2106
     14 H          20.7853   70.2435    1.3784 H       1  UNL1        0.2105
     15 N          22.6426   74.4811    3.0380 N.ar    1  UNL1       -0.2551
     16 C          23.6439   74.7507    3.8936 C.ar    1  UNL1        0.3323
     17 N          23.6306   75.8664    4.6468 N.ar    1  UNL1       -0.2743
     18 C          22.6006   76.7322    4.5605 C.ar    1  UNL1        0.2626
     19 C          21.5370   76.4577    3.6682 C.ar    1  UNL1        0.0795
     20 C          21.5783   75.3340    2.9207 C.ar    1  UNL1        0.0869
     21 O          24.5798   73.9795    3.9827 O.2     1  UNL1       -0.2464
     22 O          22.5852   77.7388    5.2445 O.2     1  UNL1       -0.2670
     23 H          24.3636   76.0473    5.2552 H       1  UNL1        0.1734
     24 O          20.8750   71.1771   -4.1869 O.3     1  UNL1       -0.2703
     25 P          21.0545   72.5446   -5.0158 P.3     1  UNL1        0.2208
     26 O          22.4221   72.6050   -5.5771 O.2     1  UNL1       -0.5170
     27 O          20.8211   73.8011   -4.0366 O.3     1  UNL1       -0.4371
     28 O          19.9804   72.5926   -6.2135 O.3     1  UNL1       -0.2865
     29 C          19.9578   71.2912   -6.8025 C.3     1  UNL1        0.2611
     30 C          20.0395   71.4241   -8.3242 C.3     1  UNL1        0.1582
     31 C          18.8552   72.2623   -8.8185 C.3     1  UNL1        0.1625
     32 C          17.5593   71.6410   -8.2869 C.3     1  UNL1        0.1686
     33 C          17.6635   71.4946   -6.7673 C.3     1  UNL1        0.1760
     34 O          18.8362   72.2687  -10.2471 O.3     1  UNL1       -0.3801
     35 O          16.4550   72.4874   -8.6122 O.3     1  UNL1       -0.3794
     36 O          18.7488   70.6278   -6.4398 O.3     1  UNL1       -0.3263
     37 H          18.0778   72.8061  -10.5141 H       1  UNL1        0.2105
     38 H          15.6616   72.0602   -8.2593 H       1  UNL1        0.2105
     39 C          21.3311   73.4194   -8.8578 C.2     1  UNL1        0.2231
     40 C          22.6230   74.0974   -9.2366 C.3     1  UNL1        0.0946
     41 N          21.2944   72.0832   -8.6918 N.am    1  UNL1       -0.2994
     42 O          20.3241   74.0768   -8.7030 O.2     1  UNL1       -0.2751
     43 H          22.1001   71.5569   -8.8158 H       1  UNL1        0.1496
     44 C          16.3610   70.9048   -6.2225 C.3     1  UNL1        0.1693
     45 O          16.3028   69.5109   -6.5319 O.3     1  UNL1       -0.3794
     46 H          15.4690   69.1791   -6.1723 H       1  UNL1        0.2105
@<TRIPOS>BOND
     1    29    30    1
     2    29    28    1
     3    29    36    1
     4    30    31    1
     5    30    41    1
     6    31    32    1
     7    31    34    1
     8    32    33    1
     9    32    35    1
    10    33    44    1
    11    33    36    1
    12    44    45    1
    13    39    40    1
    14    39    41   am
    15    39    42    2
    16    41    43    1
    17    28    25    1
    18    34    37    1
    19    35    38    1
    20    45    46    1
    21    15    16   ar
    22    15    20   ar
    23    15     6    1
    24    16    17   ar
    25    16    21    2
    26    17    18   ar
    27    17    23    1
    28    18    19   ar
    29    18    22    2
    30    19    20   ar
    31     6     7    1
    32     6    11    1
    33     7     8    1
    34     7     9    1
    35     8    13    1
    36     9    10    1
    37     9    12    1
    38    10    11    1
    39    10     5    1
    40    12    14    1
    41     5     4    1
    42     4     1    1
    43     1     2    2
    44     1     3    1
    45     1    24    1
    46    24    25    1
    47    25    26    2
    48    25    27    1
@<TRIPOS>MOLECULE
UD1
 46 48 0 0 0
SMALL
GASTEIGER

@<TRIPOS>ATOM
      1 P          19.5193   74.8479   -2.4721 P.3     1  UNL1        0.2189
      2 O          20.2948   75.6155   -3.4711 O.2     1  UNL1       -0.5170
      3 O          18.3425   75.7734   -1.8795 O.3     1  UNL1       -0.4371
      4 O          20.4934   74.3883   -1.2751 O.3     1  UNL1       -0.3112
      5 C          20.6889   72.9806   -1.4179 C.3     1  UNL1        0.1811
      6 C          22.8635   72.3966    1.3852 C.3     1  UNL1        0.2383
      7 C          22.2200   71.0166    1.0990 C.3     1  UNL1        0.1895
      8 O          23.1102   69.9555    1.4465 O.3     1  UNL1       -0.3779
      9 C          21.9979   71.0727   -0.4349 C.3     1  UNL1        0.1713
     10 C          22.0100   72.5789   -0.7601 C.3     1  UNL1        0.1764
     11 O          22.1725   73.2852    0.4817 O.3     1  UNL1       -0.3308
     12 O          23.0564   70.3982   -1.1186 O.3     1  UNL1       -0.3794
     13 H          22.6516   69.1280    1.2457 H       1  UNL1        0.2106
     14 H          23.0334   69.4765   -0.8286 H       1  UNL1        0.2105
     15 N          22.6388   72.7963    2.7748 N.ar    1  UNL1       -0.2551
     16 C          21.4446   72.5688    3.3488 C.ar    1  UNL1        0.3323
     17 N          21.2111   72.9223    4.6266 N.ar    1  UNL1       -0.2743
     18 C          22.1756   73.5228    5.3526 C.ar    1  UNL1        0.2626
     19 C          23.4355   73.7737    4.7589 C.ar    1  UNL1        0.0795
     20 C          23.6445   73.4039    3.4771 C.ar    1  UNL1        0.0869
     21 O          20.5646   72.0281    2.7070 O.2     1  UNL1       -0.2464
     22 O          21.9640   73.8472    6.5064 O.2     1  UNL1       -0.2670
     23 H          20.3453   72.7463    5.0260 H       1  UNL1        0.1734
     24 O          18.8799   73.5480   -3.1724 O.3     1  UNL1       -0.2703
     25 P          18.2870   74.0277   -4.5893 P.3     1  UNL1        0.2208
     26 O          17.9922   75.4765   -4.5356 O.2     1  UNL1       -0.5170
     27 O          16.9329   73.2168   -4.9075 O.3     1  UNL1       -0.4371
     28 O          19.3665   73.7424   -5.7485 O.3     1  UNL1       -0.2865
     29 C          20.0290   72.5235   -5.4070 C.3     1  UNL1        0.2611
     30 C          21.5195   72.6522   -5.7263 C.3     1  UNL1        0.1582
     31 C          21.6877   72.9598   -7.2185 C.3     1  UNL1        0.1625
     32 C          20.9374   71.8953   -8.0260 C.3     1  UNL1        0.1686
     33 C          19.4898   71.8259   -7.5352 C.3     1  UNL1        0.1760
     34 O          23.0750   72.9345   -7.5593 O.3     1  UNL1       -0.3801
     35 O          20.9576   72.2441   -9.4115 O.3     1  UNL1       -0.3794
     36 O          19.4650   71.4509   -6.1585 O.3     1  UNL1       -0.3263
     37 H          23.1344   73.1330   -8.5039 H       1  UNL1        0.2105
     38 H          20.4749   71.5497   -9.8819 H       1  UNL1        0.2105
     39 C          23.1829   73.5109   -4.1675 C.2     1  UNL1        0.2231
     40 C          23.7782   74.6293   -3.3508 C.3     1  UNL1        0.0946
     41 N          22.0984   73.7385   -4.9332 N.am    1  UNL1       -0.2994
     42 O          23.6800   72.4054   -4.1349 O.2     1  UNL1       -0.2751
     43 H          21.7003   74.6230   -4.9593 H       1  UNL1        0.1496
     44 C          18.7230   70.7882   -8.3575 C.3     1  UNL1        0.1693
     45 O          19.6495   69.9159   -9.0079 O.3     1  UNL1       -0.3794
     46 H          19.1266   69.2795   -9.5140 H       1  UNL1        0.2105
@<TRIPOS>BOND
     1    29    30    1
     2    29    28    1
     3    29    36    1
     4    30    31    1
     5    30    41    1
     6    31    32    1
     7    31    34    1
     8    32    33    1
     9    32    35    1
    10    33    44    1
    11    33    36    1
    12    44    45    1
    13    39    40    1
    14    39    41   am
    15    39    42    2
    16    41    43    1
    17    28    25    1
    18    34    37    1
    19    35    38    1
    20    45    46    1
    21    15    16   ar
    22    15    20   ar
    23    15     6    1
    24    16    17   ar
    25    16    21    2
    26    17    18   ar
    27    17    23    1
    28    18    19   ar
    29    18    22    2
    30    19    20   ar
    31     6     7    1
    32     6    11    1
    33     7     8    1
    34     7     9    1
    35     8    13    1
    36     9    10    1
    37     9    12    1
    38    10    11    1
    39    10     5    1
    40    12    14    1
    41     5     4    1
    42     4     1    1
    43     1     2    2
    44     1     3    1
    45     1    24    1
    46    24    25    1
    47    25    26    2
    48    25    27    1
@<TRIPOS>MOLECULE
UD1
 46 48 0 0 0
SMALL
GASTEIGER

@<TRIPOS>ATOM
      1 P          21.6605   74.5839   -3.2517 P.3     1  UNL1        0.2189
      2 O          23.0983   74.8308   -3.0053 O.2     1  UNL1       -0.5170
      3 O          20.7828   75.6401   -2.4111 O.3     1  UNL1       -0.4371
      4 O          21.2864   73.0878   -2.7885 O.3     1  UNL1       -0.3112
      5 C          21.0681   73.1338   -1.3776 C.3     1  UNL1        0.1811
      6 C          23.0431   72.4054    1.5372 C.3     1  UNL1        0.2383
      7 C          22.3207   71.0732    1.2149 C.3     1  UNL1        0.1895
      8 O          23.1146   69.9532    1.6081 O.3     1  UNL1       -0.3779
      9 C          22.1857   71.1412   -0.3286 C.3     1  UNL1        0.1713
     10 C          22.3205   72.6421   -0.6505 C.3     1  UNL1        0.1764
     11 O          22.4653   73.3382    0.5992 O.3     1  UNL1       -0.3308
     12 O          23.2294   70.3927   -0.9556 O.3     1  UNL1       -0.3794
     13 H          22.6106   69.1593    1.3818 H       1  UNL1        0.2106
     14 H          23.1265   69.4755   -0.6685 H       1  UNL1        0.2105
     15 N          22.7728   72.8231    2.9134 N.ar    1  UNL1       -0.2551
     16 C          21.6054   72.4931    3.4927 C.ar    1  UNL1        0.3323
     17 N          21.3315   72.8605    4.7585 N.ar    1  UNL1       -0.2743
     18 C          22.2268   73.5782    5.4666 C.ar    1  UNL1        0.2626
     19 C          23.4572   73.9375    4.8668 C.ar    1  UNL1        0.0795
     20 C          23.7084   73.5514    3.5975 C.ar    1  UNL1        0.0869
     21 O          20.7878   71.8459    2.8671 O.2     1  UNL1       -0.2464
     22 O          21.9782   73.9150    6.6094 O.2     1  UNL1       -0.2670
     23 H          20.4864   72.6097    5.1623 H       1  UNL1        0.1734
     24 O          21.3481   74.7536   -4.8209 O.3     1  UNL1       -0.2703
     25 P          21.2872   73.2719   -5.4456 P.3     1  UNL1        0.2208
     26 O          22.4236   72.4742   -4.9347 O.2     1  UNL1       -0.5170
     27 O          21.3741   73.3615   -7.0508 O.3     1  UNL1       -0.4371
     28 O          19.9035   72.5665   -5.0232 O.3     1  UNL1       -0.2865
     29 C          19.9203   71.2523   -5.5833 C.3     1  UNL1        0.2611
     30 C          18.6763   71.0576   -6.4519 C.3     1  UNL1        0.1582
     31 C          17.4258   71.2621   -5.5893 C.3     1  UNL1        0.1625
     32 C          17.5179   70.3430   -4.3667 C.3     1  UNL1        0.1686
     33 C          18.8483   70.5939   -3.6537 C.3     1  UNL1        0.1760
     34 O          16.2609   70.9372   -6.3502 O.3     1  UNL1       -0.3801
     35 O          16.4363   70.6227   -3.4759 O.3     1  UNL1       -0.3794
     36 O          19.9310   70.2891   -4.5319 O.3     1  UNL1       -0.3263
     37 H          15.4999   71.0800   -5.7707 H       1  UNL1        0.2105
     38 H          16.5331   70.0240   -2.7218 H       1  UNL1        0.2105
     39 C          18.7236   71.6128   -8.8233 C.2     1  UNL1        0.2231
     40 C          18.7318   72.6172   -9.9473 C.3     1  UNL1        0.0946
     41 N          18.6837   72.0329   -7.5442 N.am    1  UNL1       -0.2994
     42 O          18.7536   70.4261   -9.0704 O.2     1  UNL1       -0.2751
     43 H          18.6600   72.9825   -7.3462 H       1  UNL1        0.1496
     44 C          18.9360   69.7037   -2.4124 C.3     1  UNL1        0.1693
     45 O          18.2903   68.4560   -2.6739 O.3     1  UNL1       -0.3794
     46 H          18.3679   67.9266   -1.8687 H       1  UNL1        0.2105
@<TRIPOS>BOND
     1    29    30    1
     2    29    28    1
     3    29    36    1
     4    30    31    1
     5    30    41    1
     6    31    32    1
     7    31    34    1
     8    32    33    1
     9    32    35    1
    10    33    44    1
    11    33    36    1
    12    44    45    1
    13    39    40    1
    14    39    41   am
    15    39    42    2
    16    41    43    1
    17    28    25    1
    18    34    37    1
    19    35    38    1
    20    45    46    1
    21    15    16   ar
    22    15    20   ar
    23    15     6    1
    24    16    17   ar
    25    16    21    2
    26    17    18   ar
    27    17    23    1
    28    18    19   ar
    29    18    22    2
    30    19    20   ar
    31     6     7    1
    32     6    11    1
    33     7     8    1
    34     7     9    1
    35     8    13    1
    36     9    10    1
    37     9    12    1
    38    10    11    1
    39    10     5    1
    40    12    14    1
    41     5     4    1
    42     4     1    1
    43     1     2    2
    44     1     3    1
    45     1    24    1
    46    24    25    1
    47    25    26    2
    48    25    27    1
@<TRIPOS>MOLECULE
UD1
 46 48 0 0 0
SMALL
GASTEIGER

@<TRIPOS>ATOM
      1 P          21.1548   70.2090   -1.7052 P.3     1  UNL1        0.2189
      2 O          21.7509   69.4906   -0.5575 O.2     1  UNL1       -0.5170
      3 O          22.1586   70.1393   -2.9622 O.3     1  UNL1       -0.4371
      4 O          20.9056   71.7483   -1.3034 O.3     1  UNL1       -0.3112
      5 C          21.1444   71.8533    0.1010 C.3     1  UNL1        0.1811
      6 C          21.8123   74.5492    2.3842 C.3     1  UNL1        0.2383
      7 C          23.1955   74.2012    1.7793 C.3     1  UNL1        0.1895
      8 O          24.0310   75.3575    1.7155 O.3     1  UNL1       -0.3779
      9 C          22.8155   73.7140    0.3568 C.3     1  UNL1        0.1713
     10 C          21.3299   73.3236    0.4792 C.3     1  UNL1        0.1764
     11 O          20.9432   73.5286    1.8488 O.3     1  UNL1       -0.3308
     12 O          22.9861   74.7666   -0.5948 O.3     1  UNL1       -0.3794
     13 H          24.8726   75.0742    1.3322 H       1  UNL1        0.2106
     14 H          23.9223   75.0061   -0.5815 H       1  UNL1        0.2105
     15 N          21.8519   74.4790    3.8453 N.ar    1  UNL1       -0.2551
     16 C          22.0551   73.2958    4.4503 C.ar    1  UNL1        0.3323
     17 N          22.1002   73.2021    5.7925 N.ar    1  UNL1       -0.2743
     18 C          21.9318   74.3004    6.5562 C.ar    1  UNL1        0.2626
     19 C          21.7111   75.5515    5.9325 C.ar    1  UNL1        0.0795
     20 C          21.6759   75.6178    4.5843 C.ar    1  UNL1        0.0869
     21 O          22.2087   72.2962    3.7750 O.2     1  UNL1       -0.2464
     22 O          21.9676   74.2162    7.7699 O.2     1  UNL1       -0.2670
     23 H          22.2524   72.3413    6.2119 H       1  UNL1        0.1734
     24 O          19.7531   69.5235   -2.0980 O.3     1  UNL1       -0.2703
     25 P          18.9714   70.5695   -3.0383 P.3     1  UNL1        0.2208
     26 O          18.4892   71.7037   -2.2198 O.2     1  UNL1       -0.5170
     27 O          17.7162   69.8362   -3.7302 O.3     1  UNL1       -0.4371
     28 O          19.9671   71.1161   -4.1786 O.3     1  UNL1       -0.2865
     29 C          19.5052   72.4179   -4.5432 C.3     1  UNL1        0.2611
     30 C          19.2230   72.4511   -6.0462 C.3     1  UNL1        0.1582
     31 C          20.5077   72.1007   -6.8053 C.3     1  UNL1        0.1625
     32 C          21.6271   73.0337   -6.3312 C.3     1  UNL1        0.1686
     33 C          21.7299   72.9542   -4.8066 C.3     1  UNL1        0.1760
     34 O          20.2976   72.2737   -8.2079 O.3     1  UNL1       -0.3801
     35 O          22.8662   72.6297   -6.9169 O.3     1  UNL1       -0.3794
     36 O          20.5029   73.3832   -4.2176 O.3     1  UNL1       -0.3263
     37 H          21.1285   72.0427   -8.6455 H       1  UNL1        0.2105
     38 H          23.5418   73.2416   -6.5920 H       1  UNL1        0.2105
     39 C          17.2662   71.7558   -7.3197 C.2     1  UNL1        0.2231
     40 C          16.1924   70.7516   -7.6529 C.3     1  UNL1        0.0946
     41 N          18.1800   71.4758   -6.3706 N.am    1  UNL1       -0.2994
     42 O          17.3072   72.8165   -7.9057 O.2     1  UNL1       -0.2751
     43 H          18.1473   70.6271   -5.9013 H       1  UNL1        0.1496
     44 C          22.8669   73.8580   -4.3255 C.3     1  UNL1        0.1693
     45 O          24.0562   73.0827   -4.1634 O.3     1  UNL1       -0.3794
     46 H          24.7459   73.6884   -3.8599 H       1  UNL1        0.2105
@<TRIPOS>BOND
     1    29    30    1
     2    29    28    1
     3    29    36    1
     4    30    31    1
     5    30    41    1
     6    31    32    1
     7    31    34    1
     8    32    33    1
     9    32    35    1
    10    33    44    1
    11    33    36    1
    12    44    45    1
    13    39    40    1
    14    39    41   am
    15    39    42    2
    16    41    43    1
    17    28    25    1
    18    34    37    1
    19    35    38    1
    20    45    46    1
    21    15    16   ar
    22    15    20   ar
    23    15     6    1
    24    16    17   ar
    25    16    21    2
    26    17    18   ar
    27    17    23    1
    28    18    19   ar
    29    18    22    2
    30    19    20   ar
    31     6     7    1
    32     6    11    1
    33     7     8    1
    34     7     9    1
    35     8    13    1
    36     9    10    1
    37     9    12    1
    38    10    11    1
    39    10     5    1
    40    12    14    1
    41     5     4    1
    42     4     1    1
    43     1     2    2
    44     1     3    1
    45     1    24    1
    46    24    25    1
    47    25    26    2
    48    25    27    1
@<TRIPOS>MOLECULE
UD1
 46 48 0 0 0
SMALL
GASTEIGER

@<TRIPOS>ATOM
      1 P          18.2911   70.4365   -2.9069 P.3     1  UNL1        0.2189
      2 O          16.9430   70.9377   -2.5602 O.2     1  UNL1       -0.5170
      3 O          18.3685   68.8556   -2.6112 O.3     1  UNL1       -0.4371
      4 O          19.3930   71.2024   -2.0170 O.3     1  UNL1       -0.3112
      5 C          20.0821   72.0973   -2.8915 C.3     1  UNL1        0.1811
      6 C          22.6924   72.3400   -0.4308 C.3     1  UNL1        0.2383
      7 C          22.6148   70.8295   -0.7667 C.3     1  UNL1        0.1895
      8 O          23.8931   70.2085   -0.6270 O.3     1  UNL1       -0.3779
      9 C          22.1682   70.8487   -2.2517 C.3     1  UNL1        0.1713
     10 C          21.5345   72.2414   -2.4342 C.3     1  UNL1        0.1764
     11 O          21.5822   72.9054   -1.1598 O.3     1  UNL1       -0.3308
     12 O          23.2957   70.6879   -3.1153 O.3     1  UNL1       -0.3794
     13 H          23.7764   69.2743   -0.8487 H       1  UNL1        0.2106
     14 H          23.6826   69.8260   -2.9119 H       1  UNL1        0.2105
     15 N          22.5323   72.5613    1.0068 N.ar    1  UNL1       -0.2551
     16 C          21.8358   71.6783    1.7434 C.ar    1  UNL1        0.3323
     17 N          21.6758   71.8545    3.0684 N.ar    1  UNL1       -0.2743
     18 C          22.2079   72.9320    3.6797 C.ar    1  UNL1        0.2626
     19 C          22.9385   73.8726    2.9152 C.ar    1  UNL1        0.0795
     20 C          23.0882   73.6686    1.5888 C.ar    1  UNL1        0.0869
     21 O          21.3499   70.7015    1.2064 O.2     1  UNL1       -0.2464
     22 O          22.0598   73.0948    4.8768 O.2     1  UNL1       -0.2670
     23 H          21.1743   71.2050    3.5850 H       1  UNL1        0.1734
     24 O          18.5793   70.7064   -4.4667 O.3     1  UNL1       -0.2703
     25 P          17.1508   70.7230   -5.2073 P.3     1  UNL1        0.2208
     26 O          16.1716   71.4543   -4.3736 O.2     1  UNL1       -0.5170
     27 O          16.6429   69.2114   -5.4290 O.3     1  UNL1       -0.4371
     28 O          17.2931   71.4545   -6.6339 O.3     1  UNL1       -0.2865
     29 C          18.3456   72.4121   -6.5056 C.3     1  UNL1        0.2611
     30 C          17.8784   73.7547   -7.0706 C.3     1  UNL1        0.1582
     31 C          17.4899   73.5715   -8.5420 C.3     1  UNL1        0.1625
     32 C          18.6659   72.9261   -9.2827 C.3     1  UNL1        0.1686
     33 C          19.0717   71.6441   -8.5525 C.3     1  UNL1        0.1760
     34 O          17.1949   74.8438   -9.1214 O.3     1  UNL1       -0.3801
     35 O          18.2738   72.6121  -10.6204 O.3     1  UNL1       -0.3794
     36 O          19.4900   71.9575   -7.2246 O.3     1  UNL1       -0.3263
     37 H          16.9559   74.6818  -10.0444 H       1  UNL1        0.2105
     38 H          19.0414   72.2081  -11.0494 H       1  UNL1        0.2105
     39 C          15.4726   73.9521   -6.7427 C.2     1  UNL1        0.2231
     40 C          14.2791   74.4404   -5.9620 C.3     1  UNL1        0.0946
     41 N          16.7187   74.2284   -6.3123 N.am    1  UNL1       -0.2994
     42 O          15.3112   73.3108   -7.7590 O.2     1  UNL1       -0.2751
     43 H          16.8481   74.7418   -5.4991 H       1  UNL1        0.1496
     44 C          20.2247   70.9744   -9.3029 C.3     1  UNL1        0.1693
     45 O          20.3547   69.6199   -8.8664 O.3     1  UNL1       -0.3794
     46 H          21.0903   69.2355   -9.3622 H       1  UNL1        0.2105
@<TRIPOS>BOND
     1    29    30    1
     2    29    28    1
     3    29    36    1
     4    30    31    1
     5    30    41    1
     6    31    32    1
     7    31    34    1
     8    32    33    1
     9    32    35    1
    10    33    44    1
    11    33    36    1
    12    44    45    1
    13    39    40    1
    14    39    41   am
    15    39    42    2
    16    41    43    1
    17    28    25    1
    18    34    37    1
    19    35    38    1
    20    45    46    1
    21    15    16   ar
    22    15    20   ar
    23    15     6    1
    24    16    17   ar
    25    16    21    2
    26    17    18   ar
    27    17    23    1
    28    18    19   ar
    29    18    22    2
    30    19    20   ar
    31     6     7    1
    32     6    11    1
    33     7     8    1
    34     7     9    1
    35     8    13    1
    36     9    10    1
    37     9    12    1
    38    10    11    1
    39    10     5    1
    40    12    14    1
    41     5     4    1
    42     4     1    1
    43     1     2    2
    44     1     3    1
    45     1    24    1
    46    24    25    1
    47    25    26    2
    48    25    27    1
@<TRIPOS>MOLECULE
UD1
 46 48 0 0 0
SMALL
GASTEIGER

@<TRIPOS>ATOM
      1 P          18.6403   74.6158   -2.5882 P.3     1  UNL1        0.2189
      2 O          17.3243   74.9572   -3.1716 O.2     1  UNL1       -0.5170
      3 O          19.8075   75.0331   -3.6159 O.3     1  UNL1       -0.4371
      4 O          18.7099   73.0307   -2.3136 O.3     1  UNL1       -0.3112
      5 C          17.3640   72.5524   -2.3058 C.3     1  UNL1        0.1811
      6 C          17.8771   70.3268   -5.0825 C.3     1  UNL1        0.2383
      7 C          19.1516   70.1670   -4.2164 C.3     1  UNL1        0.1895
      8 O          19.6857   68.8476   -4.3313 O.3     1  UNL1       -0.3779
      9 C          18.6075   70.4211   -2.7865 C.3     1  UNL1        0.1713
     10 C          17.2981   71.2001   -3.0171 C.3     1  UNL1        0.1764
     11 O          17.1607   71.3992   -4.4344 O.3     1  UNL1       -0.3308
     12 O          18.3499   69.1824   -2.1217 O.3     1  UNL1       -0.3794
     13 H          20.4736   68.8146   -3.7714 H       1  UNL1        0.2106
     14 H          19.1948   68.7169   -2.0612 H       1  UNL1        0.2105
     15 N          18.2249   70.6942   -6.4556 N.ar    1  UNL1       -0.2551
     16 C          17.3170   70.5447   -7.4357 C.ar    1  UNL1        0.3323
     17 N          17.6081   70.8783   -8.7071 N.ar    1  UNL1       -0.2743
     18 C          18.8269   71.3622   -9.0205 C.ar    1  UNL1        0.2626
     19 C          19.7942   71.5191   -7.9994 C.ar    1  UNL1        0.0795
     20 C          19.4739   71.1817   -6.7318 C.ar    1  UNL1        0.0869
     21 O          16.2133   70.1096   -7.1688 O.2     1  UNL1       -0.2464
     22 O          19.0928   71.6596  -10.1704 O.2     1  UNL1       -0.2670
     23 H          16.9394   70.7683   -9.4006 H       1  UNL1        0.1734
     24 O          18.8352   75.4094   -1.2022 O.3     1  UNL1       -0.2703
     25 P          20.3627   75.1850   -0.7489 P.3     1  UNL1        0.2208
     26 O          20.5725   75.7800    0.5894 O.2     1  UNL1       -0.5170
     27 O          21.3472   75.8908   -1.8094 O.3     1  UNL1       -0.4371
     28 O          20.6805   73.6083   -0.6908 O.3     1  UNL1       -0.2865
     29 C          22.0983   73.4670   -0.7955 C.3     1  UNL1        0.2611
     30 C          22.4237   72.4028   -1.8451 C.3     1  UNL1        0.1582
     31 C          21.7769   71.0763   -1.4311 C.3     1  UNL1        0.1625
     32 C          22.2190   70.7401   -0.0029 C.3     1  UNL1        0.1686
     33 C          21.9062   71.9288    0.9084 C.3     1  UNL1        0.1760
     34 O          22.1959   70.0407   -2.3218 O.3     1  UNL1       -0.3801
     35 O          21.5138   69.5854    0.4564 O.3     1  UNL1       -0.3794
     36 O          22.6304   73.0771    0.4687 O.3     1  UNL1       -0.3263
     37 H          21.7664   69.2265   -2.0254 H       1  UNL1        0.2105
     38 H          21.8211   69.4099    1.3571 H       1  UNL1        0.2105
     39 C          22.7259   72.9494   -4.1997 C.2     1  UNL1        0.2231
     40 C          22.1831   73.3799   -5.5385 C.3     1  UNL1        0.0946
     41 N          21.8968   72.8206   -3.1460 N.am    1  UNL1       -0.2994
     42 O          23.9094   72.7195   -4.0708 O.2     1  UNL1       -0.2751
     43 H          20.9497   73.0047   -3.2488 H       1  UNL1        0.1496
     44 C          22.3144   71.5907    2.3438 C.3     1  UNL1        0.1693
     45 O          21.2158   71.8398    3.2230 O.3     1  UNL1       -0.3794
     46 H          21.5143   71.6148    4.1146 H       1  UNL1        0.2105
@<TRIPOS>BOND
     1    29    30    1
     2    29    28    1
     3    29    36    1
     4    30    31    1
     5    30    41    1
     6    31    32    1
     7    31    34    1
     8    32    33    1
     9    32    35    1
    10    33    44    1
    11    33    36    1
    12    44    45    1
    13    39    40    1
    14    39    41   am
    15    39    42    2
    16    41    43    1
    17    28    25    1
    18    34    37    1
    19    35    38    1
    20    45    46    1
    21    15    16   ar
    22    15    20   ar
    23    15     6    1
    24    16    17   ar
    25    16    21    2
    26    17    18   ar
    27    17    23    1
    28    18    19   ar
    29    18    22    2
    30    19    20   ar
    31     6     7    1
    32     6    11    1
    33     7     8    1
    34     7     9    1
    35     8    13    1
    36     9    10    1
    37     9    12    1
    38    10    11    1
    39    10     5    1
    40    12    14    1
    41     5     4    1
    42     4     1    1
    43     1     2    2
    44     1     3    1
    45     1    24    1
    46    24    25    1
    47    25    26    2
    48    25    27    1
@<TRIPOS>MOLECULE
UD1
 46 48 0 0 0
SMALL
GASTEIGER

@<TRIPOS>ATOM
      1 P          17.0046   71.7441   -3.1680 P.3     1  UNL1        0.2189
      2 O          17.0917   73.0900   -3.7762 O.2     1  UNL1       -0.5170
      3 O          16.2450   71.8432   -1.7518 O.3     1  UNL1       -0.4371
      4 O          18.4885   71.1616   -2.9404 O.3     1  UNL1       -0.3112
      5 C          19.3255   72.2743   -2.6216 C.3     1  UNL1        0.1811
      6 C          22.2474   71.7007   -0.6064 C.3     1  UNL1        0.2383
      7 C          21.4390   70.3832   -0.5020 C.3     1  UNL1        0.1895
      8 O          22.3075   69.2630   -0.3286 O.3     1  UNL1       -0.3779
      9 C          20.7303   70.3258   -1.8803 C.3     1  UNL1        0.1713
     10 C          20.7533   71.7852   -2.3741 C.3     1  UNL1        0.1764
     11 O          21.3700   72.5774   -1.3448 O.3     1  UNL1       -0.3308
     12 O          21.4487   69.4759   -2.7772 O.3     1  UNL1       -0.3794
     13 H          21.7447   68.4785   -0.2703 H       1  UNL1        0.2106
     14 H          21.4498   68.5928   -2.3845 H       1  UNL1        0.2105
     15 N          22.5241   72.2470    0.7226 N.ar    1  UNL1       -0.2551
     16 C          22.4787   71.4405    1.7972 C.ar    1  UNL1        0.3323
     17 N          22.7326   71.9150    3.0312 N.ar    1  UNL1       -0.2743
     18 C          23.0294   73.2180    3.2104 C.ar    1  UNL1        0.2626
     19 C          23.0747   74.0794    2.0884 C.ar    1  UNL1        0.0795
     20 C          22.8211   73.5761    0.8614 C.ar    1  UNL1        0.0869
     21 O          22.2125   70.2630    1.6518 O.2     1  UNL1       -0.2464
     22 O          23.2545   73.6490    4.3261 O.2     1  UNL1       -0.2670
     23 H          22.7001   71.3180    3.7945 H       1  UNL1        0.1734
     24 O          16.1882   70.7639   -4.1486 O.3     1  UNL1       -0.2703
     25 P          17.2055   70.3184   -5.3131 P.3     1  UNL1        0.2208
     26 O          16.5545   69.3091   -6.1770 O.2     1  UNL1       -0.5170
     27 O          18.5316   69.6855   -4.6550 O.3     1  UNL1       -0.4371
     28 O          17.6070   71.6023   -6.1968 O.3     1  UNL1       -0.2865
     29 C          19.0163   71.5279   -6.4194 C.3     1  UNL1        0.2611
     30 C          19.5449   72.9177   -6.7788 C.3     1  UNL1        0.1582
     31 C          18.8242   73.4184   -8.0356 C.3     1  UNL1        0.1625
     32 C          18.9669   72.3618   -9.1362 C.3     1  UNL1        0.1686
     33 C          18.4790   71.0144   -8.5998 C.3     1  UNL1        0.1760
     34 O          19.4124   74.6468   -8.4674 O.3     1  UNL1       -0.3801
     35 O          18.1804   72.7406  -10.2673 O.3     1  UNL1       -0.3794
     36 O          19.2802   70.6199   -7.4867 O.3     1  UNL1       -0.3263
     37 H          18.9296   74.9251   -9.2579 H       1  UNL1        0.2105
     38 H          18.2983   72.0494  -10.9342 H       1  UNL1        0.2105
     39 C          20.2425   74.7191   -5.2947 C.2     1  UNL1        0.2231
     40 C          19.9835   75.6674   -4.1520 C.3     1  UNL1        0.0946
     41 N          19.2936   73.8395   -5.6691 N.am    1  UNL1       -0.2994
     42 O          21.3057   74.7473   -5.8769 O.2     1  UNL1       -0.2751
     43 H          18.4427   73.8165   -5.2032 H       1  UNL1        0.1496
     44 C          18.5870   69.9587   -9.7020 C.3     1  UNL1        0.1693
     45 O          19.4890   70.4147  -10.7122 O.3     1  UNL1       -0.3794
     46 H          19.5280   69.7224  -11.3858 H       1  UNL1        0.2105
@<TRIPOS>BOND
     1    29    30    1
     2    29    28    1
     3    29    36    1
     4    30    31    1
     5    30    41    1
     6    31    32    1
     7    31    34    1
     8    32    33    1
     9    32    35    1
    10    33    44    1
    11    33    36    1
    12    44    45    1
    13    39    40    1
    14    39    41   am
    15    39    42    2
    16    41    43    1
    17    28    25    1
    18    34    37    1
    19    35    38    1
    20    45    46    1
    21    15    16   ar
    22    15    20   ar
    23    15     6    1
    24    16    17   ar
    25    16    21    2
    26    17    18   ar
    27    17    23    1
    28    18    19   ar
    29    18    22    2
    30    19    20   ar
    31     6     7    1
    32     6    11    1
    33     7     8    1
    34     7     9    1
    35     8    13    1
    36     9    10    1
    37     9    12    1
    38    10    11    1
    39    10     5    1
    40    12    14    1
    41     5     4    1
    42     4     1    1
    43     1     2    2
    44     1     3    1
    45     1    24    1
    46    24    25    1
    47    25    26    2
    48    25    27    1
@<TRIPOS>MOLECULE
UD1
 46 48 0 0 0
SMALL
GASTEIGER

@<TRIPOS>ATOM
      1 P          22.3719   72.8190   -4.7382 P.3     1  UNL1        0.2189
      2 O          21.6977   74.1172   -4.5171 O.2     1  UNL1       -0.5170
      3 O          23.7596   72.7891   -3.9221 O.3     1  UNL1       -0.4371
      4 O          22.6703   72.6306   -6.3093 O.3     1  UNL1       -0.3112
      5 C          21.5863   73.2396   -7.0124 C.3     1  UNL1        0.1811
      6 C          18.2915   72.1847   -7.9917 C.3     1  UNL1        0.2383
      7 C          19.1436   72.0402   -9.2775 C.3     1  UNL1        0.1895
      8 O          18.6562   70.9771  -10.0969 O.3     1  UNL1       -0.3779
      9 C          20.5436   71.6996   -8.7039 C.3     1  UNL1        0.1713
     10 C          20.4852   72.2048   -7.2493 C.3     1  UNL1        0.1764
     11 O          19.1955   72.8103   -7.0562 O.3     1  UNL1       -0.3308
     12 O          20.7701   70.2889   -8.7416 O.3     1  UNL1       -0.3794
     13 H          19.2266   70.9406  -10.8771 H       1  UNL1        0.2106
     14 H          20.7356   70.0253   -9.6708 H       1  UNL1        0.2105
     15 N          17.1272   73.0376   -8.2333 N.ar    1  UNL1       -0.2551
     16 C          16.0208   72.8821   -7.4855 C.ar    1  UNL1        0.3323
     17 N          14.9365   73.6551   -7.6830 N.ar    1  UNL1       -0.2743
     18 C          14.9404   74.5977   -8.6470 C.ar    1  UNL1        0.2626
     19 C          16.0964   74.7680   -9.4455 C.ar    1  UNL1        0.0795
     20 C          17.1720   73.9827   -9.2225 C.ar    1  UNL1        0.0869
     21 O          16.0019   72.0363   -6.6122 O.2     1  UNL1       -0.2464
     22 O          13.9589   75.2939   -8.8296 O.2     1  UNL1       -0.2670
     23 H          14.1487   73.5324   -7.1312 H       1  UNL1        0.1734
     24 O          21.4211   71.6263   -4.2259 O.3     1  UNL1       -0.2703
     25 P          22.1472   70.9687   -2.9493 P.3     1  UNL1        0.2208
     26 O          23.5731   70.7286   -3.2624 O.2     1  UNL1       -0.5170
     27 O          21.4353   69.5707   -2.5872 O.3     1  UNL1       -0.4371
     28 O          22.0347   71.9679   -1.6926 O.3     1  UNL1       -0.2865
     29 C          20.8003   71.6719   -1.0369 C.3     1  UNL1        0.2611
     30 C          19.9618   72.9475   -0.9390 C.3     1  UNL1        0.1582
     31 C          20.7490   74.0060   -0.1583 C.3     1  UNL1        0.1625
     32 C          21.1807   73.4050    1.1835 C.3     1  UNL1        0.1686
     33 C          21.9301   72.0961    0.9252 C.3     1  UNL1        0.1760
     34 O          19.9206   75.1478    0.0691 O.3     1  UNL1       -0.3801
     35 O          22.0391   74.3224    1.8641 O.3     1  UNL1       -0.3794
     36 O          21.0669   71.1676    0.2700 O.3     1  UNL1       -0.3263
     37 H          20.4543   75.7866    0.5614 H       1  UNL1        0.2105
     38 H          22.2872   73.9050    2.7011 H       1  UNL1        0.2105
     39 C          18.3977   73.4998   -2.7230 C.2     1  UNL1        0.2231
     40 C          18.0979   74.0130   -4.1083 C.3     1  UNL1        0.0946
     41 N          19.6701   73.4465   -2.2845 N.am    1  UNL1       -0.2994
     42 O          17.4932   73.1341   -2.0031 O.2     1  UNL1       -0.2751
     43 H          20.3942   73.7389   -2.8605 H       1  UNL1        0.1496
     44 C          22.3941   71.5041    2.2577 C.3     1  UNL1        0.1693
     45 O          21.4286   71.7944    3.2704 O.3     1  UNL1       -0.3794
     46 H          21.7586   71.4051    4.0915 H       1  UNL1        0.2105
@<TRIPOS>BOND
     1    29    30    1
     2    29    28    1
     3    29    36    1
     4    30    31    1
     5    30    41    1
     6    31    32    1
     7    31    34    1
     8    32    33    1
     9    32    35    1
    10    33    44    1
    11    33    36    1
    12    44    45    1
    13    39    40    1
    14    39    41   am
    15    39    42    2
    16    41    43    1
    17    28    25    1
    18    34    37    1
    19    35    38    1
    20    45    46    1
    21    15    16   ar
    22    15    20   ar
    23    15     6    1
    24    16    17   ar
    25    16    21    2
    26    17    18   ar
    27    17    23    1
    28    18    19   ar
    29    18    22    2
    30    19    20   ar
    31     6     7    1
    32     6    11    1
    33     7     8    1
    34     7     9    1
    35     8    13    1
    36     9    10    1
    37     9    12    1
    38    10    11    1
    39    10     5    1
    40    12    14    1
    41     5     4    1
    42     4     1    1
    43     1     2    2
    44     1     3    1
    45     1    24    1
    46    24    25    1
    47    25    26    2
    48    25    27    1
@<TRIPOS>MOLECULE
UD1
 46 48 0 0 0
SMALL
GASTEIGER

@<TRIPOS>ATOM
      1 P          20.1129   70.8548   -2.3077 P.3     1  UNL1        0.2189
      2 O          21.1124   71.2902   -3.3078 O.2     1  UNL1       -0.5170
      3 O          20.1600   69.2517   -2.1647 O.3     1  UNL1       -0.4371
      4 O          18.6435   71.3070   -2.7864 O.3     1  UNL1       -0.3112
      5 C          18.3118   70.5032   -3.9197 C.3     1  UNL1        0.1811
      6 C          18.8374   72.5391   -6.8362 C.3     1  UNL1        0.2383
      7 C          18.5279   71.1288   -7.3979 C.3     1  UNL1        0.1895
      8 O          17.8757   71.2153   -8.6654 O.3     1  UNL1       -0.3779
      9 C          17.5715   70.5524   -6.3217 C.3     1  UNL1        0.1713
     10 C          17.8596   71.4039   -5.0701 C.3     1  UNL1        0.1764
     11 O          18.9087   72.3264   -5.4103 O.3     1  UNL1       -0.3308
     12 O          16.2103   70.6988   -6.7319 O.3     1  UNL1       -0.3794
     13 H          17.7122   70.3083   -8.9587 H       1  UNL1        0.2106
     14 H          16.1090   70.1932   -7.5493 H       1  UNL1        0.2105
     15 N          20.1159   73.0333   -7.3489 N.ar    1  UNL1       -0.2551
     16 C          20.1361   73.8335   -8.4289 C.ar    1  UNL1        0.3323
     17 N          21.2971   74.3060   -8.9199 N.ar    1  UNL1       -0.2743
     18 C          22.4667   73.9738   -8.3370 C.ar    1  UNL1        0.2626
     19 C          22.4603   73.1273   -7.2029 C.ar    1  UNL1        0.0795
     20 C          21.2811   72.6719   -6.7280 C.ar    1  UNL1        0.0869
     21 O          19.0896   74.1421   -8.9657 O.2     1  UNL1       -0.2464
     22 O          23.5173   74.3965   -8.7829 O.2     1  UNL1       -0.2670
     23 H          21.2927   74.8860   -9.6969 H       1  UNL1        0.1734
     24 O          20.4459   71.5314   -0.8864 O.3     1  UNL1       -0.2703
     25 P          21.8055   70.8536   -0.3560 P.3     1  UNL1        0.2208
     26 O          22.6720   70.5196   -1.5078 O.2     1  UNL1       -0.5170
     27 O          21.4540   69.5095    0.4576 O.3     1  UNL1       -0.4371
     28 O          22.5756   71.8808    0.6147 O.3     1  UNL1       -0.2865
     29 C          21.8731   73.1229    0.5449 C.3     1  UNL1        0.2611
     30 C          22.8759   74.2593    0.3374 C.3     1  UNL1        0.1582
     31 C          23.8732   74.2664    1.5013 C.3     1  UNL1        0.1625
     32 C          23.0902   74.3199    2.8174 C.3     1  UNL1        0.1686
     33 C          22.0732   73.1769    2.8391 C.3     1  UNL1        0.1760
     34 O          24.7215   75.4115    1.3981 O.3     1  UNL1       -0.3801
     35 O          23.9925   74.1796    3.9164 O.3     1  UNL1       -0.3794
     36 O          21.1536   73.3292    1.7586 O.3     1  UNL1       -0.3263
     37 H          25.3314   75.3759    2.1477 H       1  UNL1        0.2105
     38 H          23.4591   74.2180    4.7230 H       1  UNL1        0.2105
     39 C          23.0248   74.4156   -2.0891 C.2     1  UNL1        0.2231
     40 C          23.7640   74.2049   -3.3858 C.3     1  UNL1        0.0946
     41 N          23.5937   74.0553   -0.9225 N.am    1  UNL1       -0.2994
     42 O          21.9172   74.9089   -2.0958 O.2     1  UNL1       -0.2751
     43 H          24.4800   73.6603   -0.9169 H       1  UNL1        0.1496
     44 C          21.3080   73.2018    4.1638 C.3     1  UNL1        0.1693
     45 O          22.0445   72.4805    5.1535 O.3     1  UNL1       -0.3794
     46 H          21.5288   72.5203    5.9703 H       1  UNL1        0.2105
@<TRIPOS>BOND
     1    29    30    1
     2    29    28    1
     3    29    36    1
     4    30    31    1
     5    30    41    1
     6    31    32    1
     7    31    34    1
     8    32    33    1
     9    32    35    1
    10    33    44    1
    11    33    36    1
    12    44    45    1
    13    39    40    1
    14    39    41   am
    15    39    42    2
    16    41    43    1
    17    28    25    1
    18    34    37    1
    19    35    38    1
    20    45    46    1
    21    15    16   ar
    22    15    20   ar
    23    15     6    1
    24    16    17   ar
    25    16    21    2
    26    17    18   ar
    27    17    23    1
    28    18    19   ar
    29    18    22    2
    30    19    20   ar
    31     6     7    1
    32     6    11    1
    33     7     8    1
    34     7     9    1
    35     8    13    1
    36     9    10    1
    37     9    12    1
    38    10    11    1
    39    10     5    1
    40    12    14    1
    41     5     4    1
    42     4     1    1
    43     1     2    2
    44     1     3    1
    45     1    24    1
    46    24    25    1
    47    25    26    2
    48    25    27    1
@<TRIPOS>MOLECULE
UD1
 46 48 0 0 0
SMALL
GASTEIGER

@<TRIPOS>ATOM
      1 P          22.2680   71.8453    1.9220 P.3     1  UNL1        0.2189
      2 O          20.9595   71.6899    2.5945 O.2     1  UNL1       -0.5170
      3 O          23.1119   70.4818    2.0682 O.3     1  UNL1       -0.4371
      4 O          23.0819   73.0548    2.6058 O.3     1  UNL1       -0.3112
      5 C          22.2708   74.2237    2.4783 C.3     1  UNL1        0.1811
      6 C          23.3065   75.9313    5.4680 C.3     1  UNL1        0.2383
      7 C          24.5492   75.1116    5.0389 C.3     1  UNL1        0.1895
      8 O          25.7552   75.7720    5.4246 O.3     1  UNL1       -0.3779
      9 C          24.4032   75.0831    3.4951 C.3     1  UNL1        0.1713
     10 C          22.9096   75.3761    3.2549 C.3     1  UNL1        0.1764
     11 O          22.2841   75.5035    4.5432 O.3     1  UNL1       -0.3308
     12 O          25.2201   76.0917    2.8966 O.3     1  UNL1       -0.3794
     13 H          26.4873   75.2127    5.1302 H       1  UNL1        0.2106
     14 H          26.1347   75.8865    3.1323 H       1  UNL1        0.2105
     15 N          22.9239   75.6124    6.8440 N.ar    1  UNL1       -0.2551
     16 C          22.2078   74.5030    7.0965 C.ar    1  UNL1        0.3323
     17 N          21.8453   74.1829    8.3528 N.ar    1  UNL1       -0.2743
     18 C          22.1896   74.9809    9.3836 C.ar    1  UNL1        0.2626
     19 C          22.9383   76.1551    9.1313 C.ar    1  UNL1        0.0795
     20 C          23.2932   76.4495    7.8622 C.ar    1  UNL1        0.0869
     21 O          21.8898   73.7731    6.1773 O.2     1  UNL1       -0.2464
     22 O          21.8583   74.6950   10.5193 O.2     1  UNL1       -0.2670
     23 H          21.3330   73.3762    8.5171 H       1  UNL1        0.1734
     24 O          22.0353   72.1690    0.3632 O.3     1  UNL1       -0.2703
     25 P          21.8465   70.7554   -0.3820 P.3     1  UNL1        0.2208
     26 O          21.4775   69.7208    0.6092 O.2     1  UNL1       -0.5170
     27 O          23.2247   70.3396   -1.1029 O.3     1  UNL1       -0.4371
     28 O          20.6818   70.8805   -1.4858 O.3     1  UNL1       -0.2865
     29 C          21.2816   70.6095   -2.7538 C.3     1  UNL1        0.2611
     30 C          21.3546   71.9043   -3.5651 C.3     1  UNL1        0.1582
     31 C          19.9389   72.4638   -3.7447 C.3     1  UNL1        0.1625
     32 C          19.0512   71.3680   -4.3441 C.3     1  UNL1        0.1686
     33 C          19.1496   70.1145   -3.4722 C.3     1  UNL1        0.1760
     34 O          19.9767   73.5888   -4.6246 O.3     1  UNL1       -0.3801
     35 O          17.6961   71.8192   -4.3838 O.3     1  UNL1       -0.3794
     36 O          20.4972   69.6453   -3.4527 O.3     1  UNL1       -0.3263
     37 H          19.0678   73.9084   -4.7088 H       1  UNL1        0.2105
     38 H          17.1730   71.1004   -4.7662 H       1  UNL1        0.2105
     39 C          23.3667   73.2635   -3.3689 C.2     1  UNL1        0.2231
     40 C          24.2182   74.2691   -2.6367 C.3     1  UNL1        0.0946
     41 N          22.1819   72.8816   -2.8545 N.am    1  UNL1       -0.2994
     42 O          23.7486   72.7974   -4.4210 O.2     1  UNL1       -0.2751
     43 H          21.8761   73.2543   -2.0123 H       1  UNL1        0.1496
     44 C          18.2412   69.0242   -4.0444 C.3     1  UNL1        0.1693
     45 O          18.5487   67.7738   -3.4248 O.3     1  UNL1       -0.3794
     46 H          17.9559   67.1160   -3.8128 H       1  UNL1        0.2105
@<TRIPOS>BOND
     1    29    30    1
     2    29    28    1
     3    29    36    1
     4    30    31    1
     5    30    41    1
     6    31    32    1
     7    31    34    1
     8    32    33    1
     9    32    35    1
    10    33    44    1
    11    33    36    1
    12    44    45    1
    13    39    40    1
    14    39    41   am
    15    39    42    2
    16    41    43    1
    17    28    25    1
    18    34    37    1
    19    35    38    1
    20    45    46    1
    21    15    16   ar
    22    15    20   ar
    23    15     6    1
    24    16    17   ar
    25    16    21    2
    26    17    18   ar
    27    17    23    1
    28    18    19   ar
    29    18    22    2
    30    19    20   ar
    31     6     7    1
    32     6    11    1
    33     7     8    1
    34     7     9    1
    35     8    13    1
    36     9    10    1
    37     9    12    1
    38    10    11    1
    39    10     5    1
    40    12    14    1
    41     5     4    1
    42     4     1    1
    43     1     2    2
    44     1     3    1
    45     1    24    1
    46    24    25    1
    47    25    26    2
    48    25    27    1
