@<TRIPOS>MOLECULE
*****
 43 45 0 0 0
SMALL
GASTEIGER

@<TRIPOS>ATOM
      1 P          22.9748   71.6820   -2.7332 P.3     1  UNL1        0.2189
      2 O          23.8039   72.9856   -3.2134 O.co2   1  UNL1       -0.4371
      3 O          23.4871   70.3748   -3.2624 O.2     1  UNL1       -0.5170
      4 O          21.4411   72.0382   -3.1055 O.3     1  UNL1       -0.3112
      5 C          20.5973   70.9965   -3.5643 C.3     1  UNL1        0.1811
      6 O          18.7320   71.9999   -4.6990 O.3     1  UNL1       -0.3308
      7 O          17.0235   70.8296   -2.5305 O.3     1  UNL1       -0.3794
      8 O          16.6428   69.0866   -4.5930 O.3     1  UNL1       -0.3779
      9 C          18.1884   70.2891   -3.1519 C.3     1  UNL1        0.1713
     10 C          17.8613   69.8009   -4.5477 C.3     1  UNL1        0.1895
     11 C          19.1465   71.4397   -3.4338 C.3     1  UNL1        0.1764
     12 C          17.8062   71.1012   -5.3315 C.3     1  UNL1        0.2383
     13 H          16.3967   70.1133   -2.3405 H       1  UNL1        0.2105
     14 H          16.7286   68.2679   -4.0801 H       1  UNL1        0.2106
     15 O          16.0224   70.4047   -7.4078 O.2     1  UNL1       -0.2464
     16 O          19.3814   70.4680  -10.5628 O.2     1  UNL1       -0.2670
     17 N          18.1875   70.9294   -6.7049 N.ar    1  UNL1       -0.2551
     18 N          17.6963   70.4370   -8.9771 N.ar    1  UNL1       -0.2743
     19 C          17.2145   70.5781   -7.6694 C.ar    1  UNL1        0.3323
     20 C          19.5135   71.1093   -7.0837 C.ar    1  UNL1        0.0869
     21 C          19.9570   70.9697   -8.3347 C.ar    1  UNL1        0.0795
     22 C          19.0046   70.6039   -9.4029 C.ar    1  UNL1        0.2626
     23 H          17.0365   70.1922   -9.6659 H       1  UNL1        0.1734
     24 O          22.9968   71.8106   -1.1220 O.3     1  UNL1       -0.2703
     25 P          22.4672   70.8082    0.0303 P.3     1  UNL1        0.2208
     26 O          23.6653   69.7291    0.1627 O.co2   1  UNL1       -0.4371
     27 O          21.1202   70.2068   -0.2488 O.2     1  UNL1       -0.5170
     28 O          22.5448   71.6726    1.3910 O.3     1  UNL1       -0.2858
     29 O          21.4974   72.5616    3.3221 O.3     1  UNL1       -0.3258
     30 O          21.1561   75.8305    0.8223 O.3     1  UNL1       -0.3794
     31 O          23.0326   75.8970    2.9954 O.3     1  UNL1       -0.3794
     32 O          20.8097   73.1593   -0.2381 O.3     1  UNL1       -0.3775
     33 C          21.7843   74.6671    1.3675 C.3     1  UNL1        0.1715
     34 C          22.0195   74.9043    2.8606 C.3     1  UNL1        0.1694
     35 C          20.8731   73.4603    1.1518 C.3     1  UNL1        0.1967
     36 C          22.4427   73.6094    3.5673 C.3     1  UNL1        0.1761
     37 C          21.3567   72.2398    1.9370 C.3     1  UNL1        0.2704
     38 H          21.7297   76.6003    0.9556 H       1  UNL1        0.2105
     39 H          22.7531   76.7093    2.5444 H       1  UNL1        0.2105
     40 H          20.5020   73.9397   -0.7241 H       1  UNL1        0.2106
     41 O          21.9083   72.6751    5.7004 O.3     1  UNL1       -0.3794
     42 C          22.5297   73.7865    5.0816 C.3     1  UNL1        0.1693
     43 H          21.9563   72.7739    6.6646 H       1  UNL1        0.2105
@<TRIPOS>UNITY_ATOM_ATTR
2 1
charge -1
26 1
charge -1
@<TRIPOS>BOND
     1    25    28    1
     2    25    24    1
     3    25    26    1
     4    25    27    2
     5     1     4    1
     6     1    24    1
     7     1     2    1
     8     1     3    2
     9     6    11    1
    10     6    12    1
    11    29    36    1
    12    29    37    1
    13     7     9    1
    14     7    13    1
    15     8    10    1
    16     8    14    1
    17    28    37    1
    18     4     5    1
    19    30    33    1
    20    30    38    1
    21    31    34    1
    22    31    39    1
    23    32    35    1
    24    32    40    1
    25    41    42    1
    26    41    43    1
    27    15    19    2
    28    16    22    2
    29    17    12    1
    30    17    19   ar
    31    17    20   ar
    32    18    19   ar
    33    18    22   ar
    34    18    23    1
    35     9    10    1
    36     9    11    1
    37    10    12    1
    38    11     5    1
    39    33    34    1
    40    33    35    1
    41    34    36    1
    42    35    37    1
    43    36    42    1
    44    20    21   ar
    45    21    22   ar
@<TRIPOS>MOLECULE
*****
 43 45 0 0 0
SMALL
GASTEIGER

@<TRIPOS>ATOM
      1 P          23.0136   72.0750   -3.3071 P.3     1  UNL1        0.2189
      2 O          23.7255   72.9777   -4.4454 O.co2   1  UNL1       -0.4371
      3 O          23.5368   70.6736   -3.1903 O.2     1  UNL1       -0.5170
      4 O          21.4349   72.2106   -3.6349 O.3     1  UNL1       -0.3112
      5 C          20.6164   71.0612   -3.5057 C.3     1  UNL1        0.1811
      6 O          18.7450   72.0541   -4.6396 O.3     1  UNL1       -0.3308
      7 O          17.0453   70.8828   -2.4647 O.3     1  UNL1       -0.3794
      8 O          16.6678   69.1328   -4.5218 O.3     1  UNL1       -0.3779
      9 C          18.2112   70.3453   -3.0869 C.3     1  UNL1        0.1713
     10 C          17.8834   69.8520   -4.4807 C.3     1  UNL1        0.1895
     11 C          19.1642   71.4989   -3.3737 C.3     1  UNL1        0.1764
     12 C          17.8216   71.1500   -5.2679 C.3     1  UNL1        0.2383
     13 H          16.4218   70.1645   -2.2716 H       1  UNL1        0.2105
     14 H          16.7577   68.3158   -4.0068 H       1  UNL1        0.2106
     15 O          16.0470   70.3894   -7.3296 O.2     1  UNL1       -0.2464
     16 O          19.3890   70.5116  -10.5010 O.2     1  UNL1       -0.2670
     17 N          18.2011   70.9760   -6.6416 N.ar    1  UNL1       -0.2551
     18 N          17.7125   70.4510   -8.9070 N.ar    1  UNL1       -0.2743
     19 C          17.2331   70.5912   -7.5984 C.ar    1  UNL1        0.3323
     20 C          19.5202   71.1867   -7.0282 C.ar    1  UNL1        0.0869
     21 C          19.9615   71.0476   -8.2801 C.ar    1  UNL1        0.0795
     22 C          19.0140   70.6479   -9.3405 C.ar    1  UNL1        0.2626
     23 H          17.0561   70.1833   -9.5906 H       1  UNL1        0.1734
     24 O          23.1857   72.9707   -1.9725 O.3     1  UNL1       -0.2703
     25 P          22.4450   72.8914   -0.5379 P.3     1  UNL1        0.2208
     26 O          22.7328   71.3742   -0.0552 O.co2   1  UNL1       -0.4371
     27 O          20.9913   73.2643   -0.5745 O.2     1  UNL1       -0.5170
     28 O          23.3463   73.8077    0.4384 O.3     1  UNL1       -0.2858
     29 O          22.1162   74.1882    2.4280 O.3     1  UNL1       -0.3258
     30 O          25.4095   76.5476    3.2269 O.3     1  UNL1       -0.3794
     31 O          25.0641   74.0702    4.6381 O.3     1  UNL1       -0.3794
     32 O          24.3325   76.4329    0.5425 O.3     1  UNL1       -0.3775
     33 C          24.7154   75.4171    2.6926 C.3     1  UNL1        0.1715
     34 C          24.0432   74.6760    3.8501 C.3     1  UNL1        0.1694
     35 C          23.6729   75.9013    1.6865 C.3     1  UNL1        0.1967
     36 C          23.0651   73.6123    3.3333 C.3     1  UNL1        0.1761
     37 C          22.7205   74.7772    1.2748 C.3     1  UNL1        0.2704
     38 H          26.0733   76.2470    3.8661 H       1  UNL1        0.2105
     39 H          25.6752   74.7525    4.9578 H       1  UNL1        0.2105
     40 H          24.9322   77.1437    0.8163 H       1  UNL1        0.2106
     41 O          21.2580   72.1554    3.8995 O.3     1  UNL1       -0.3794
     42 C          22.2678   72.9699    4.4663 C.3     1  UNL1        0.1693
     43 H          20.7426   71.7398    4.6089 H       1  UNL1        0.2105
@<TRIPOS>UNITY_ATOM_ATTR
2 1
charge -1
26 1
charge -1
@<TRIPOS>BOND
     1    25    28    1
     2    25    24    1
     3    25    26    1
     4    25    27    2
     5     1     4    1
     6     1    24    1
     7     1     2    1
     8     1     3    2
     9     6    11    1
    10     6    12    1
    11    29    36    1
    12    29    37    1
    13     7     9    1
    14     7    13    1
    15     8    10    1
    16     8    14    1
    17    28    37    1
    18     4     5    1
    19    30    33    1
    20    30    38    1
    21    31    34    1
    22    31    39    1
    23    32    35    1
    24    32    40    1
    25    41    42    1
    26    41    43    1
    27    15    19    2
    28    16    22    2
    29    17    12    1
    30    17    19   ar
    31    17    20   ar
    32    18    19   ar
    33    18    22   ar
    34    18    23    1
    35     9    10    1
    36     9    11    1
    37    10    12    1
    38    11     5    1
    39    33    34    1
    40    33    35    1
    41    34    36    1
    42    35    37    1
    43    36    42    1
    44    20    21   ar
    45    21    22   ar
@<TRIPOS>MOLECULE
*****
 43 45 0 0 0
SMALL
GASTEIGER

@<TRIPOS>ATOM
      1 P          21.6715   73.6127   -5.4682 P.3     1  UNL1        0.2189
      2 O          20.6633   74.8005   -5.0322 O.co2   1  UNL1       -0.4371
      3 O          23.0376   74.0650   -5.8930 O.2     1  UNL1       -0.5170
      4 O          20.8333   72.7773   -6.5716 O.3     1  UNL1       -0.3112
      5 C          21.4224   72.5526   -7.8405 C.3     1  UNL1        0.1811
      6 O          19.9445   70.6812   -8.1358 O.3     1  UNL1       -0.3308
      7 O          18.5335   72.3578  -10.1824 O.3     1  UNL1       -0.3794
      8 O          16.9152   72.5963   -8.0005 O.3     1  UNL1       -0.3779
      9 C          19.1450   72.7556   -8.9564 C.3     1  UNL1        0.1713
     10 C          18.2868   72.3373   -7.7807 C.3     1  UNL1        0.1895
     11 C          20.3935   71.9053   -8.7573 C.3     1  UNL1        0.1764
     12 C          18.5926   70.8525   -7.6799 C.3     1  UNL1        0.2383
     13 H          17.7339   72.8873  -10.3314 H       1  UNL1        0.2105
     14 H          16.7718   73.5539   -8.0572 H       1  UNL1        0.2106
     15 O          16.1860   69.9936   -6.4764 O.2     1  UNL1       -0.2464
     16 O          18.3121   68.9916   -2.5120 O.2     1  UNL1       -0.2670
     17 N          18.4884   70.3620   -6.3346 N.ar    1  UNL1       -0.2551
     18 N          17.2466   69.4952   -4.5035 N.ar    1  UNL1       -0.2743
     19 C          17.2325   69.9567   -5.8259 C.ar    1  UNL1        0.3323
     20 C          19.6235   70.2863   -5.5347 C.ar    1  UNL1        0.0869
     21 C          19.6199   69.8451   -4.2751 C.ar    1  UNL1        0.0795
     22 C          18.3483   69.4023   -3.6678 C.ar    1  UNL1        0.2626
     23 H          16.3829   69.2078   -4.1277 H       1  UNL1        0.1734
     24 O          21.6567   72.6331   -4.1825 O.3     1  UNL1       -0.2703
     25 P          22.8319   72.2110   -3.1560 P.3     1  UNL1        0.2208
     26 O          23.9407   73.3706   -3.3642 O.co2   1  UNL1       -0.4371
     27 O          23.3502   70.8159   -3.3540 O.2     1  UNL1       -0.5170
     28 O          22.2161   72.4941   -1.6912 O.3     1  UNL1       -0.2858
     29 O          23.3804   73.8370   -0.1235 O.3     1  UNL1       -0.3258
     30 O          21.0082   71.6858    2.4834 O.3     1  UNL1       -0.3794
     31 O          20.4309   74.4570    1.9990 O.3     1  UNL1       -0.3794
     32 O          22.1471   70.3868    0.1607 O.3     1  UNL1       -0.3775
     33 C          21.3214   72.3627    1.2632 C.3     1  UNL1        0.1715
     34 C          21.6401   73.8223    1.5926 C.3     1  UNL1        0.1694
     35 C          22.5240   71.6839    0.6102 C.3     1  UNL1        0.1967
     36 C          22.2417   74.5453    0.3800 C.3     1  UNL1        0.1761
     37 C          23.0751   72.5091   -0.5540 C.3     1  UNL1        0.2704
     38 H          20.2451   72.1115    2.9029 H       1  UNL1        0.2105
     39 H          20.0611   73.9906    2.7651 H       1  UNL1        0.2105
     40 H          21.8002   69.8743    0.9069 H       1  UNL1        0.2106
     41 O          24.0975   76.0485    0.4526 O.3     1  UNL1       -0.3794
     42 C          22.7124   75.9552    0.7303 C.3     1  UNL1        0.1693
     43 H          24.4110   76.9406    0.6705 H       1  UNL1        0.2105
@<TRIPOS>UNITY_ATOM_ATTR
2 1
charge -1
26 1
charge -1
@<TRIPOS>BOND
     1    25    28    1
     2    25    24    1
     3    25    26    1
     4    25    27    2
     5     1     4    1
     6     1    24    1
     7     1     2    1
     8     1     3    2
     9     6    11    1
    10     6    12    1
    11    29    36    1
    12    29    37    1
    13     7     9    1
    14     7    13    1
    15     8    10    1
    16     8    14    1
    17    28    37    1
    18     4     5    1
    19    30    33    1
    20    30    38    1
    21    31    34    1
    22    31    39    1
    23    32    35    1
    24    32    40    1
    25    41    42    1
    26    41    43    1
    27    15    19    2
    28    16    22    2
    29    17    12    1
    30    17    19   ar
    31    17    20   ar
    32    18    19   ar
    33    18    22   ar
    34    18    23    1
    35     9    10    1
    36     9    11    1
    37    10    12    1
    38    11     5    1
    39    33    34    1
    40    33    35    1
    41    34    36    1
    42    35    37    1
    43    36    42    1
    44    20    21   ar
    45    21    22   ar
@<TRIPOS>MOLECULE
*****
 43 45 0 0 0
SMALL
GASTEIGER

@<TRIPOS>ATOM
      1 P          22.7982   71.8391   -2.2655 P.3     1  UNL1        0.2189
      2 O          23.4940   73.2958   -2.3714 O.co2   1  UNL1       -0.4371
      3 O          23.3752   70.7935   -3.1740 O.2     1  UNL1       -0.5170
      4 O          21.2217   72.1465   -2.4602 O.3     1  UNL1       -0.3112
      5 C          20.5299   71.4926   -3.5097 C.3     1  UNL1        0.1811
      6 O          18.5842   72.2647   -4.6895 O.3     1  UNL1       -0.3308
      7 O          16.9836   71.0600   -2.4585 O.3     1  UNL1       -0.3794
      8 O          16.7644   69.1853   -4.4268 O.3     1  UNL1       -0.3779
      9 C          18.1934   70.5946   -3.0544 C.3     1  UNL1        0.1713
     10 C          17.9138   70.0073   -4.4221 C.3     1  UNL1        0.1895
     11 C          19.0450   71.8102   -3.3982 C.3     1  UNL1        0.1764
     12 C          17.7438   71.2550   -5.2720 C.3     1  UNL1        0.2383
     13 H          16.4232   70.3013   -2.2298 H       1  UNL1        0.2105
     14 H          16.9223   68.4053   -3.8724 H       1  UNL1        0.2106
     15 O          16.0172   70.3550   -7.3181 O.2     1  UNL1       -0.2464
     16 O          19.3796   70.4920  -10.4673 O.2     1  UNL1       -0.2670
     17 N          18.1415   71.0471   -6.6358 N.ar    1  UNL1       -0.2551
     18 N          17.6928   70.4241   -8.8845 N.ar    1  UNL1       -0.2743
     19 C          17.1971   70.5921   -7.5853 C.ar    1  UNL1        0.3323
     20 C          19.4550   71.2941   -7.0199 C.ar    1  UNL1        0.0869
     21 C          19.9121   71.1276   -8.2628 C.ar    1  UNL1        0.0795
     22 C          18.9897   70.6549   -9.3152 C.ar    1  UNL1        0.2626
     23 H          17.0529   70.1075   -9.5629 H       1  UNL1        0.1734
     24 O          22.9097   71.4967   -0.6896 O.3     1  UNL1       -0.2703
     25 P          22.0210   70.5288    0.2519 P.3     1  UNL1        0.2208
     26 O          23.1318   69.7209    1.1068 O.co2   1  UNL1       -0.4371
     27 O          21.0600   69.6532   -0.4989 O.2     1  UNL1       -0.5170
     28 O          21.3278   71.5214    1.3192 O.3     1  UNL1       -0.2858
     29 O          21.6943   73.8213    0.8804 O.3     1  UNL1       -0.3258
     30 O          20.2153   74.1106    4.7249 O.3     1  UNL1       -0.3794
     31 O          18.5852   74.9438    2.5121 O.3     1  UNL1       -0.3794
     32 O          21.9817   71.9290    4.0176 O.3     1  UNL1       -0.3775
     33 C          20.3218   73.5642    3.4075 C.3     1  UNL1        0.1715
     34 C          19.9783   74.6654    2.4024 C.3     1  UNL1        0.1694
     35 C          21.7480   73.0626    3.1889 C.3     1  UNL1        0.1967
     36 C          20.3264   74.2368    0.9705 C.3     1  UNL1        0.1761
     37 C          22.0040   72.7094    1.7227 C.3     1  UNL1        0.2704
     38 H          19.3120   74.4305    4.8703 H       1  UNL1        0.2105
     39 H          18.3785   75.2128    3.4210 H       1  UNL1        0.2105
     40 H          21.8165   72.1657    4.9431 H       1  UNL1        0.2106
     41 O          20.0993   76.5981    0.6849 O.3     1  UNL1       -0.3794
     42 C          20.1395   75.3762   -0.0290 C.3     1  UNL1        0.1693
     43 H          19.9810   77.3323    0.0615 H       1  UNL1        0.2105
@<TRIPOS>UNITY_ATOM_ATTR
2 1
charge -1
26 1
charge -1
@<TRIPOS>BOND
     1    25    28    1
     2    25    24    1
     3    25    26    1
     4    25    27    2
     5     1     4    1
     6     1    24    1
     7     1     2    1
     8     1     3    2
     9     6    11    1
    10     6    12    1
    11    29    36    1
    12    29    37    1
    13     7     9    1
    14     7    13    1
    15     8    10    1
    16     8    14    1
    17    28    37    1
    18     4     5    1
    19    30    33    1
    20    30    38    1
    21    31    34    1
    22    31    39    1
    23    32    35    1
    24    32    40    1
    25    41    42    1
    26    41    43    1
    27    15    19    2
    28    16    22    2
    29    17    12    1
    30    17    19   ar
    31    17    20   ar
    32    18    19   ar
    33    18    22   ar
    34    18    23    1
    35     9    10    1
    36     9    11    1
    37    10    12    1
    38    11     5    1
    39    33    34    1
    40    33    35    1
    41    34    36    1
    42    35    37    1
    43    36    42    1
    44    20    21   ar
    45    21    22   ar
@<TRIPOS>MOLECULE
*****
 43 45 0 0 0
SMALL
GASTEIGER

@<TRIPOS>ATOM
      1 P          22.8682   71.5266   -2.3112 P.3     1  UNL1        0.2189
      2 O          23.4206   73.0370   -2.4865 O.co2   1  UNL1       -0.4371
      3 O          23.4741   70.5181   -3.2424 O.2     1  UNL1       -0.5170
      4 O          21.2607   71.6882   -2.3999 O.3     1  UNL1       -0.3112
      5 C          20.6549   71.7284   -3.6802 C.3     1  UNL1        0.1811
      6 O          18.5835   72.2263   -4.7915 O.3     1  UNL1       -0.3308
      7 O          17.2333   70.8987   -2.4666 O.3     1  UNL1       -0.3794
      8 O          17.1656   68.9577   -4.3809 O.3     1  UNL1       -0.3779
      9 C          18.4658   70.5669   -3.1038 C.3     1  UNL1        0.1713
     10 C          18.2052   69.9126   -4.4445 C.3     1  UNL1        0.1895
     11 C          19.1481   71.8668   -3.5116 C.3     1  UNL1        0.1764
     12 C          17.8499   71.1066   -5.3141 C.3     1  UNL1        0.2383
     13 H          16.7795   70.0843   -2.1968 H       1  UNL1        0.2105
     14 H          17.4398   68.2181   -3.8164 H       1  UNL1        0.2106
     15 O          16.0134   70.5673   -7.3912 O.2     1  UNL1       -0.2464
     16 O          19.3633   70.3718  -10.5504 O.2     1  UNL1       -0.2670
     17 N          18.2147   70.9108   -6.6889 N.ar    1  UNL1       -0.2551
     18 N          17.6829   70.4706   -8.9626 N.ar    1  UNL1       -0.2743
     19 C          17.2154   70.6444   -7.6537 C.ar    1  UNL1        0.3323
     20 C          19.5505   70.9840   -7.0686 C.ar    1  UNL1        0.0869
     21 C          19.9800   70.8146   -8.3208 C.ar    1  UNL1        0.0795
     22 C          18.9999   70.5325   -9.3894 C.ar    1  UNL1        0.2626
     23 H          17.0046   70.2836   -9.6516 H       1  UNL1        0.1734
     24 O          23.1173   71.2283   -0.7421 O.3     1  UNL1       -0.2703
     25 P          22.1670   70.5442    0.3723 P.3     1  UNL1        0.2208
     26 O          23.2206   69.9828    1.4643 O.co2   1  UNL1       -0.4371
     27 O          21.2281   69.5070   -0.1724 O.2     1  UNL1       -0.5170
     28 O          21.4406   71.7842    1.1068 O.3     1  UNL1       -0.2858
     29 O          22.9726   73.5782    1.3330 O.3     1  UNL1       -0.3258
     30 O          19.8177   75.1274    3.5005 O.3     1  UNL1       -0.3794
     31 O          20.4266   76.2104    0.9112 O.3     1  UNL1       -0.3794
     32 O          20.4444   72.3069    3.6777 O.3     1  UNL1       -0.3775
     33 C          20.4328   74.3783    2.4488 C.3     1  UNL1        0.1715
     34 C          21.2959   75.3330    1.6215 C.3     1  UNL1        0.1694
     35 C          21.2897   73.2712    3.0597 C.3     1  UNL1        0.1967
     36 C          22.1929   74.5622    0.6435 C.3     1  UNL1        0.1761
     37 C          22.1794   72.6018    2.0107 C.3     1  UNL1        0.2704
     38 H          19.2717   75.8317    3.1193 H       1  UNL1        0.2105
     39 H          19.8654   76.6907    1.5402 H       1  UNL1        0.2105
     40 H          19.8865   72.7431    4.3398 H       1  UNL1        0.2106
     41 O          24.3832   74.7760   -0.2868 O.3     1  UNL1       -0.3794
     42 C          23.1740   75.4825   -0.0794 C.3     1  UNL1        0.1693
     43 H          25.0172   75.3494   -0.7463 H       1  UNL1        0.2105
@<TRIPOS>UNITY_ATOM_ATTR
2 1
charge -1
26 1
charge -1
@<TRIPOS>BOND
     1    25    28    1
     2    25    24    1
     3    25    26    1
     4    25    27    2
     5     1     4    1
     6     1    24    1
     7     1     2    1
     8     1     3    2
     9     6    11    1
    10     6    12    1
    11    29    36    1
    12    29    37    1
    13     7     9    1
    14     7    13    1
    15     8    10    1
    16     8    14    1
    17    28    37    1
    18     4     5    1
    19    30    33    1
    20    30    38    1
    21    31    34    1
    22    31    39    1
    23    32    35    1
    24    32    40    1
    25    41    42    1
    26    41    43    1
    27    15    19    2
    28    16    22    2
    29    17    12    1
    30    17    19   ar
    31    17    20   ar
    32    18    19   ar
    33    18    22   ar
    34    18    23    1
    35     9    10    1
    36     9    11    1
    37    10    12    1
    38    11     5    1
    39    33    34    1
    40    33    35    1
    41    34    36    1
    42    35    37    1
    43    36    42    1
    44    20    21   ar
    45    21    22   ar
@<TRIPOS>MOLECULE
*****
 43 45 0 0 0
SMALL
GASTEIGER

@<TRIPOS>ATOM
      1 P          21.6897   70.9055   -1.0744 P.3     1  UNL1        0.2189
      2 O          23.2725   70.5801   -1.1544 O.co2   1  UNL1       -0.4371
      3 O          20.8077   69.7118   -0.8541 O.2     1  UNL1       -0.5170
      4 O          21.3993   71.7548   -2.4206 O.3     1  UNL1       -0.3112
      5 C          20.6477   71.1452   -3.4557 C.3     1  UNL1        0.1811
      6 O          18.7649   72.1207   -4.5859 O.3     1  UNL1       -0.3308
      7 O          17.0782   70.9168   -2.4188 O.3     1  UNL1       -0.3794
      8 O          16.7243   69.1731   -4.4854 O.3     1  UNL1       -0.3779
      9 C          18.2512   70.3972   -3.0427 C.3     1  UNL1        0.1713
     10 C          17.9308   69.9072   -4.4395 C.3     1  UNL1        0.1895
     11 C          19.1900   71.5641   -3.3226 C.3     1  UNL1        0.1764
     12 C          17.8534   71.2085   -5.2198 C.3     1  UNL1        0.2383
     13 H          16.4635   70.1898   -2.2300 H       1  UNL1        0.2105
     14 H          16.8240   68.3546   -3.9747 H       1  UNL1        0.2106
     15 O          16.0884   70.4450   -7.2885 O.2     1  UNL1       -0.2464
     16 O          19.4331   70.6171  -10.4547 O.2     1  UNL1       -0.2670
     17 N          18.2362   71.0465   -6.5941 N.ar    1  UNL1       -0.2551
     18 N          17.7552   70.5315   -8.8634 N.ar    1  UNL1       -0.2743
     19 C          17.2729   70.6591   -7.5545 C.ar    1  UNL1        0.3323
     20 C          19.5538   71.2715   -6.9776 C.ar    1  UNL1        0.0869
     21 C          19.9979   71.1442   -8.2297 C.ar    1  UNL1        0.0795
     22 C          19.0554   70.7428   -9.2939 C.ar    1  UNL1        0.2626
     23 H          17.1021   70.2621   -9.5494 H       1  UNL1        0.1734
     24 O          21.6073   72.0264    0.0873 O.3     1  UNL1       -0.2703
     25 P          22.0212   73.5890    0.0860 P.3     1  UNL1        0.2208
     26 O          20.6681   74.3308   -0.4001 O.co2   1  UNL1       -0.4371
     27 O          23.2323   73.9041   -0.7434 O.2     1  UNL1       -0.5170
     28 O          22.1601   73.9761    1.6467 O.3     1  UNL1       -0.2858
     29 O          24.0281   73.6860    3.0761 O.3     1  UNL1       -0.3258
     30 O          20.9995   73.0819    5.8172 O.3     1  UNL1       -0.3794
     31 O          22.5319   75.5091    5.9093 O.3     1  UNL1       -0.3794
     32 O          20.7311   72.0632    3.1210 O.3     1  UNL1       -0.3775
     33 C          21.6236   73.6732    4.6743 C.3     1  UNL1        0.1715
     34 C          22.9041   74.3723    5.1351 C.3     1  UNL1        0.1694
     35 C          21.9444   72.5784    3.6585 C.3     1  UNL1        0.1967
     36 C          23.7637   74.7994    3.9377 C.3     1  UNL1        0.1761
     37 C          22.8443   73.0963    2.5351 C.3     1  UNL1        0.2704
     38 H          20.7927   73.7719    6.4659 H       1  UNL1        0.2105
     39 H          21.9891   75.2258    6.6618 H       1  UNL1        0.2105
     40 H          20.1704   71.7382    3.8421 H       1  UNL1        0.2106
     41 O          25.7922   74.3615    5.1219 O.3     1  UNL1       -0.3794
     42 C          25.1168   75.3564    4.3747 C.3     1  UNL1        0.1693
     43 H          26.6552   74.7019    5.4064 H       1  UNL1        0.2105
@<TRIPOS>UNITY_ATOM_ATTR
2 1
charge -1
26 1
charge -1
@<TRIPOS>BOND
     1    25    28    1
     2    25    24    1
     3    25    26    1
     4    25    27    2
     5     1     4    1
     6     1    24    1
     7     1     2    1
     8     1     3    2
     9     6    11    1
    10     6    12    1
    11    29    36    1
    12    29    37    1
    13     7     9    1
    14     7    13    1
    15     8    10    1
    16     8    14    1
    17    28    37    1
    18     4     5    1
    19    30    33    1
    20    30    38    1
    21    31    34    1
    22    31    39    1
    23    32    35    1
    24    32    40    1
    25    41    42    1
    26    41    43    1
    27    15    19    2
    28    16    22    2
    29    17    12    1
    30    17    19   ar
    31    17    20   ar
    32    18    19   ar
    33    18    22   ar
    34    18    23    1
    35     9    10    1
    36     9    11    1
    37    10    12    1
    38    11     5    1
    39    33    34    1
    40    33    35    1
    41    34    36    1
    42    35    37    1
    43    36    42    1
    44    20    21   ar
    45    21    22   ar
@<TRIPOS>MOLECULE
*****
 43 45 0 0 0
SMALL
GASTEIGER

@<TRIPOS>ATOM
      1 P          22.9301   72.0225   -3.0444 P.3     1  UNL1        0.2189
      2 O          23.6659   70.5899   -3.1982 O.co2   1  UNL1       -0.4371
      3 O          22.7914   72.5155   -1.6341 O.2     1  UNL1       -0.5170
      4 O          21.5471   71.8388   -3.8639 O.3     1  UNL1       -0.3112
      5 C          20.7048   70.7485   -3.5329 C.3     1  UNL1        0.1811
      6 O          18.8905   71.9451   -4.5577 O.3     1  UNL1       -0.3308
      7 O          17.1351   70.6943   -2.4732 O.3     1  UNL1       -0.3794
      8 O          16.6416   69.1535   -4.6683 O.3     1  UNL1       -0.3779
      9 C          18.2631   70.1439   -3.1514 C.3     1  UNL1        0.1713
     10 C          17.8986   69.7928   -4.5788 C.3     1  UNL1        0.1895
     11 C          19.2823   71.2591   -3.3484 C.3     1  UNL1        0.1764
     12 C          17.9109   71.1551   -5.2512 C.3     1  UNL1        0.2383
     13 H          16.4705   70.0006   -2.3357 H       1  UNL1        0.2105
     14 H          16.6850   68.2913   -4.2262 H       1  UNL1        0.2106
     15 O          16.1105   71.5447   -7.3924 O.2     1  UNL1       -0.2464
     16 O          19.4065   70.8325  -10.5341 O.2     1  UNL1       -0.2670
     17 N          18.2717   71.0777   -6.6388 N.ar    1  UNL1       -0.2551
     18 N          17.7531   71.1899   -8.9550 N.ar    1  UNL1       -0.2743
     19 C          17.2914   71.2887   -7.6362 C.ar    1  UNL1        0.3323
     20 C          19.5850   70.7955   -6.9986 C.ar    1  UNL1        0.0869
     21 C          20.0089   70.7035   -8.2608 C.ar    1  UNL1        0.0795
     22 C          19.0477   70.9105   -9.3632 C.ar    1  UNL1        0.2626
     23 H          17.0877   71.3328   -9.6668 H       1  UNL1        0.1734
     24 O          23.7999   72.9833   -4.0105 O.3     1  UNL1       -0.2703
     25 P          23.9644   74.5911   -4.0395 P.3     1  UNL1        0.2208
     26 O          25.5680   74.8009   -3.9948 O.co2   1  UNL1       -0.4371
     27 O          23.2159   75.3060   -2.9520 O.2     1  UNL1       -0.5170
     28 O          23.5390   75.0184   -5.5366 O.3     1  UNL1       -0.2858
     29 O          21.6098   76.1013   -6.3863 O.3     1  UNL1       -0.3258
     30 O          22.1976   73.3401   -9.3998 O.3     1  UNL1       -0.3794
     31 O          22.7786   76.1109   -9.8824 O.3     1  UNL1       -0.3794
     32 O          22.6676   72.5912   -6.6433 O.3     1  UNL1       -0.3775
     33 C          22.5957   74.2595   -8.3792 C.3     1  UNL1        0.1715
     34 C          22.0581   75.6444   -8.7451 C.3     1  UNL1        0.1694
     35 C          22.0239   73.7973   -7.0403 C.3     1  UNL1        0.1967
     36 C          22.2127   76.6255   -7.5752 C.3     1  UNL1        0.1761
     37 C          22.1860   74.8659   -5.9577 C.3     1  UNL1        0.2704
     38 H          22.5579   73.6275  -10.2525 H       1  UNL1        0.2105
     39 H          22.6731   75.4822  -10.6137 H       1  UNL1        0.2105
     40 H          22.5576   71.9227   -7.3368 H       1  UNL1        0.2106
     41 O          21.0959   78.5172   -6.6355 O.3     1  UNL1       -0.3794
     42 C          21.5417   77.9671   -7.8614 C.3     1  UNL1        0.1693
     43 H          20.6669   79.3715   -6.8021 H       1  UNL1        0.2105
@<TRIPOS>UNITY_ATOM_ATTR
2 1
charge -1
26 1
charge -1
@<TRIPOS>BOND
     1    25    28    1
     2    25    24    1
     3    25    26    1
     4    25    27    2
     5     1     4    1
     6     1    24    1
     7     1     2    1
     8     1     3    2
     9     6    11    1
    10     6    12    1
    11    29    36    1
    12    29    37    1
    13     7     9    1
    14     7    13    1
    15     8    10    1
    16     8    14    1
    17    28    37    1
    18     4     5    1
    19    30    33    1
    20    30    38    1
    21    31    34    1
    22    31    39    1
    23    32    35    1
    24    32    40    1
    25    41    42    1
    26    41    43    1
    27    15    19    2
    28    16    22    2
    29    17    12    1
    30    17    19   ar
    31    17    20   ar
    32    18    19   ar
    33    18    22   ar
    34    18    23    1
    35     9    10    1
    36     9    11    1
    37    10    12    1
    38    11     5    1
    39    33    34    1
    40    33    35    1
    41    34    36    1
    42    35    37    1
    43    36    42    1
    44    20    21   ar
    45    21    22   ar
@<TRIPOS>MOLECULE
*****
 43 45 0 0 0
SMALL
GASTEIGER

@<TRIPOS>ATOM
      1 P          22.4785   72.7502   -4.0545 P.3     1  UNL1        0.2189
      2 O          23.6635   71.7284   -3.6434 O.co2   1  UNL1       -0.4371
      3 O          22.1312   73.7708   -3.0109 O.2     1  UNL1       -0.5170
      4 O          21.2702   71.7782   -4.5162 O.3     1  UNL1       -0.3112
      5 C          20.6360   70.9755   -3.5357 C.3     1  UNL1        0.1811
      6 O          18.7627   71.9848   -4.6519 O.3     1  UNL1       -0.3308
      7 O          17.0710   70.8129   -2.4711 O.3     1  UNL1       -0.3794
      8 O          16.6692   69.0752   -4.5340 O.3     1  UNL1       -0.3779
      9 C          18.2295   70.2717   -3.1039 C.3     1  UNL1        0.1713
     10 C          17.8893   69.7871   -4.4978 C.3     1  UNL1        0.1895
     11 C          19.1872   71.4211   -3.3916 C.3     1  UNL1        0.1764
     12 C          17.8297   71.0892   -5.2782 C.3     1  UNL1        0.2383
     13 H          16.4446   70.0974   -2.2772 H       1  UNL1        0.2105
     14 H          16.7579   68.2552   -4.0236 H       1  UNL1        0.2106
     15 O          16.0218   70.4274   -7.3450 O.2     1  UNL1       -0.2464
     16 O          19.3582   70.4631  -10.5243 O.2     1  UNL1       -0.2670
     17 N          18.1988   70.9197   -6.6554 N.ar    1  UNL1       -0.2551
     18 N          17.6845   70.4459   -8.9264 N.ar    1  UNL1       -0.2743
     19 C          17.2142   70.5864   -7.6145 C.ar    1  UNL1        0.3323
     20 C          19.5242   71.0841   -7.0429 C.ar    1  UNL1        0.0869
     21 C          19.9567   70.9453   -8.2979 C.ar    1  UNL1        0.0795
     22 C          18.9917   70.5978   -9.3609 C.ar    1  UNL1        0.2626
     23 H          17.0165   70.2135   -9.6116 H       1  UNL1        0.1734
     24 O          23.0013   73.3694   -5.4532 O.3     1  UNL1       -0.2703
     25 P          22.7725   74.8230   -6.1221 P.3     1  UNL1        0.2208
     26 O          24.0559   75.6695   -5.6181 O.co2   1  UNL1       -0.4371
     27 O          21.4489   75.4504   -5.7930 O.2     1  UNL1       -0.5170
     28 O          23.0299   74.5924   -7.6986 O.3     1  UNL1       -0.2858
     29 O          21.8049   76.3424   -8.7249 O.3     1  UNL1       -0.3258
     30 O          24.6169   78.5982   -6.7114 O.3     1  UNL1       -0.3794
     31 O          21.9016   78.5538   -5.7772 O.3     1  UNL1       -0.3794
     32 O          25.3874   76.0948   -7.9439 O.3     1  UNL1       -0.3775
     33 C          23.7265   77.4960   -6.9049 C.3     1  UNL1        0.1715
     34 C          22.3058   78.0462   -7.0457 C.3     1  UNL1        0.1694
     35 C          24.1370   76.7380   -8.1659 C.3     1  UNL1        0.1967
     36 C          21.3343   76.9568   -7.5196 C.3     1  UNL1        0.1761
     37 C          23.0792   75.7127   -8.5782 C.3     1  UNL1        0.2704
     38 H          24.3621   79.0834   -5.9119 H       1  UNL1        0.2105
     39 H          22.5235   79.2404   -5.4892 H       1  UNL1        0.2105
     40 H          26.0485   76.7545   -7.6838 H       1  UNL1        0.2106
     41 O          19.3064   76.6656   -8.7491 O.3     1  UNL1       -0.3794
     42 C          19.9461   77.5189   -7.8180 C.3     1  UNL1        0.1693
     43 H          18.4215   77.0108   -8.9482 H       1  UNL1        0.2105
@<TRIPOS>UNITY_ATOM_ATTR
2 1
charge -1
26 1
charge -1
@<TRIPOS>BOND
     1    25    28    1
     2    25    24    1
     3    25    26    1
     4    25    27    2
     5     1     4    1
     6     1    24    1
     7     1     2    1
     8     1     3    2
     9     6    11    1
    10     6    12    1
    11    29    36    1
    12    29    37    1
    13     7     9    1
    14     7    13    1
    15     8    10    1
    16     8    14    1
    17    28    37    1
    18     4     5    1
    19    30    33    1
    20    30    38    1
    21    31    34    1
    22    31    39    1
    23    32    35    1
    24    32    40    1
    25    41    42    1
    26    41    43    1
    27    15    19    2
    28    16    22    2
    29    17    12    1
    30    17    19   ar
    31    17    20   ar
    32    18    19   ar
    33    18    22   ar
    34    18    23    1
    35     9    10    1
    36     9    11    1
    37    10    12    1
    38    11     5    1
    39    33    34    1
    40    33    35    1
    41    34    36    1
    42    35    37    1
    43    36    42    1
    44    20    21   ar
    45    21    22   ar
@<TRIPOS>MOLECULE
*****
 43 45 0 0 0
SMALL
GASTEIGER

@<TRIPOS>ATOM
      1 P          21.6915   73.8287   -5.5372 P.3     1  UNL1        0.2189
      2 O          20.9451   74.7266   -4.4173 O.co2   1  UNL1       -0.4371
      3 O          22.8382   74.5043   -6.2301 O.2     1  UNL1       -0.5170
      4 O          20.4893   73.3253   -6.4959 O.3     1  UNL1       -0.3112
      5 C          20.1371   74.1220   -7.6136 C.3     1  UNL1        0.1811
      6 O          19.6362   71.8567   -8.2393 O.3     1  UNL1       -0.3308
      7 O          17.9331   73.0306  -10.4100 O.3     1  UNL1       -0.3794
      8 O          16.0935   72.3406   -8.5189 O.3     1  UNL1       -0.3779
      9 C          18.1538   73.5023   -9.0819 C.3     1  UNL1        0.1713
     10 C          17.4049   72.6408   -8.0866 C.3     1  UNL1        0.1895
     11 C          19.6060   73.2190   -8.7185 C.3     1  UNL1        0.1764
     12 C          18.2907   71.4090   -8.0070 C.3     1  UNL1        0.2383
     13 H          17.0122   73.2009  -10.6646 H       1  UNL1        0.2105
     14 H          15.5696   73.1561   -8.5531 H       1  UNL1        0.2106
     15 O          16.0233   70.0505   -7.0113 O.2     1  UNL1       -0.2464
     16 O          18.1593   68.9987   -3.0651 O.2     1  UNL1       -0.2670
     17 N          18.2268   70.7705   -6.7226 N.ar    1  UNL1       -0.2551
     18 N          17.0888   69.5277   -5.0473 N.ar    1  UNL1       -0.2743
     19 C          17.0402   70.1161   -6.3175 C.ar    1  UNL1        0.3323
     20 C          19.3327   70.7969   -5.8799 C.ar    1  UNL1        0.0869
     21 C          19.3624   70.2321   -4.6710 C.ar    1  UNL1        0.0795
     22 C          18.1634   69.5281   -4.1722 C.ar    1  UNL1        0.2626
     23 H          16.2734   69.0665   -4.7437 H       1  UNL1        0.1734
     24 O          22.0914   72.4908   -4.7230 O.3     1  UNL1       -0.2703
     25 P          23.0562   72.2748   -3.4442 P.3     1  UNL1        0.2208
     26 O          24.2782   73.2974   -3.7244 O.co2   1  UNL1       -0.4371
     27 O          23.4782   70.8508   -3.2252 O.2     1  UNL1       -0.5170
     28 O          22.2506   72.9312   -2.2092 O.3     1  UNL1       -0.2858
     29 O          21.5557   71.1970   -0.7510 O.3     1  UNL1       -0.3258
     30 O          19.6944   74.3912    1.0885 O.3     1  UNL1       -0.3794
     31 O          21.9918   73.1870    2.3213 O.3     1  UNL1       -0.3794
     32 O          19.8107   74.2561   -1.8008 O.3     1  UNL1       -0.3775
     33 C          20.7342   73.7317    0.3610 C.3     1  UNL1        0.1715
     34 C          21.2854   72.6006    1.2315 C.3     1  UNL1        0.1694
     35 C          20.1583   73.1766   -0.9404 C.3     1  UNL1        0.1967
     36 C          22.2139   71.6829    0.4248 C.3     1  UNL1        0.1761
     37 C          21.1436   72.2378   -1.6390 C.3     1  UNL1        0.2704
     38 H          20.0536   74.7463    1.9157 H       1  UNL1        0.2105
     39 H          21.3944   73.7644    2.8222 H       1  UNL1        0.2105
     40 H          19.1864   74.8429   -1.3471 H       1  UNL1        0.2106
     41 O          22.0602   69.3094    0.6531 O.3     1  UNL1       -0.3794
     42 C          22.6498   70.4603    1.2295 C.3     1  UNL1        0.1693
     43 H          22.3291   68.5235    1.1548 H       1  UNL1        0.2105
@<TRIPOS>UNITY_ATOM_ATTR
2 1
charge -1
26 1
charge -1
@<TRIPOS>BOND
     1    25    28    1
     2    25    24    1
     3    25    26    1
     4    25    27    2
     5     1     4    1
     6     1    24    1
     7     1     2    1
     8     1     3    2
     9     6    11    1
    10     6    12    1
    11    29    36    1
    12    29    37    1
    13     7     9    1
    14     7    13    1
    15     8    10    1
    16     8    14    1
    17    28    37    1
    18     4     5    1
    19    30    33    1
    20    30    38    1
    21    31    34    1
    22    31    39    1
    23    32    35    1
    24    32    40    1
    25    41    42    1
    26    41    43    1
    27    15    19    2
    28    16    22    2
    29    17    12    1
    30    17    19   ar
    31    17    20   ar
    32    18    19   ar
    33    18    22   ar
    34    18    23    1
    35     9    10    1
    36     9    11    1
    37    10    12    1
    38    11     5    1
    39    33    34    1
    40    33    35    1
    41    34    36    1
    42    35    37    1
    43    36    42    1
    44    20    21   ar
    45    21    22   ar
@<TRIPOS>MOLECULE
*****
 43 45 0 0 0
SMALL
GASTEIGER

@<TRIPOS>ATOM
      1 P          22.4867   73.1228   -4.0151 P.3     1  UNL1        0.2189
      2 O          22.1837   74.4822   -4.8383 O.co2   1  UNL1       -0.4371
      3 O          23.8989   72.6249   -4.1116 O.2     1  UNL1       -0.5170
      4 O          21.3438   72.0972   -4.5247 O.3     1  UNL1       -0.3112
      5 C          20.7183   71.2545   -3.5725 C.3     1  UNL1        0.1811
      6 O          18.8030   72.1608   -4.7056 O.3     1  UNL1       -0.3308
      7 O          17.1740   71.0453   -2.4490 O.3     1  UNL1       -0.3794
      8 O          16.7921   69.2045   -4.4243 O.3     1  UNL1       -0.3779
      9 C          18.3382   70.5069   -3.0735 C.3     1  UNL1        0.1713
     10 C          17.9926   69.9498   -4.4387 C.3     1  UNL1        0.1895
     11 C          19.2600   71.6672   -3.4274 C.3     1  UNL1        0.1764
     12 C          17.8866   71.2127   -5.2766 C.3     1  UNL1        0.2383
     13 H          16.5702   70.3229   -2.2134 H       1  UNL1        0.2105
     14 H          16.9103   68.4115   -3.8785 H       1  UNL1        0.2106
     15 O          16.0772   70.3735   -7.2765 O.2     1  UNL1       -0.2464
     16 O          19.3602   70.3894  -10.5112 O.2     1  UNL1       -0.2670
     17 N          18.2415   70.9901   -6.6499 N.ar    1  UNL1       -0.2551
     18 N          17.7133   70.3822   -8.8855 N.ar    1  UNL1       -0.2743
     19 C          17.2574   70.5684   -7.5742 C.ar    1  UNL1        0.3323
     20 C          19.5526   71.1901   -7.0681 C.ar    1  UNL1        0.0869
     21 C          19.9714   71.0069   -8.3220 C.ar    1  UNL1        0.0795
     22 C          19.0060   70.5667   -9.3497 C.ar    1  UNL1        0.2626
     23 H          17.0454   70.0882   -9.5468 H       1  UNL1        0.1734
     24 O          22.0037   73.4898   -2.5168 O.3     1  UNL1       -0.2703
     25 P          22.2134   74.8258   -1.6312 P.3     1  UNL1        0.2208
     26 O          20.9111   75.7165   -1.9892 O.co2   1  UNL1       -0.4371
     27 O          23.5230   75.5210   -1.8669 O.2     1  UNL1       -0.5170
     28 O          21.9743   74.3480   -0.1082 O.3     1  UNL1       -0.2858
     29 O          21.3191   72.1068    0.2972 O.3     1  UNL1       -0.3258
     30 O          20.1091   73.8033    3.8622 O.3     1  UNL1       -0.3794
     31 O          22.4192   72.0976    3.8155 O.3     1  UNL1       -0.3794
     32 O          19.7806   75.2625    1.3838 O.3     1  UNL1       -0.3775
     33 C          20.9517   73.6354    2.7189 C.3     1  UNL1        0.1715
     34 C          21.4997   72.2070    2.7326 C.3     1  UNL1        0.1694
     35 C          20.1324   73.8849    1.4540 C.3     1  UNL1        0.1967
     36 C          22.1931   71.8669    1.4064 C.3     1  UNL1        0.1761
     37 C          20.8954   73.4677    0.1954 C.3     1  UNL1        0.2704
     38 H          20.6234   73.6467    4.6688 H       1  UNL1        0.2105
     39 H          21.9690   72.3154    4.6468 H       1  UNL1        0.2105
     40 H          19.2979   75.5141    2.1861 H       1  UNL1        0.2106
     41 O          21.6425   69.6939    0.5797 O.3     1  UNL1       -0.3794
     42 C          22.6080   70.3988    1.3380 C.3     1  UNL1        0.1693
     43 H          21.8937   68.7580    0.5274 H       1  UNL1        0.2105
@<TRIPOS>UNITY_ATOM_ATTR
2 1
charge -1
26 1
charge -1
@<TRIPOS>BOND
     1    25    28    1
     2    25    24    1
     3    25    26    1
     4    25    27    2
     5     1     4    1
     6     1    24    1
     7     1     2    1
     8     1     3    2
     9     6    11    1
    10     6    12    1
    11    29    36    1
    12    29    37    1
    13     7     9    1
    14     7    13    1
    15     8    10    1
    16     8    14    1
    17    28    37    1
    18     4     5    1
    19    30    33    1
    20    30    38    1
    21    31    34    1
    22    31    39    1
    23    32    35    1
    24    32    40    1
    25    41    42    1
    26    41    43    1
    27    15    19    2
    28    16    22    2
    29    17    12    1
    30    17    19   ar
    31    17    20   ar
    32    18    19   ar
    33    18    22   ar
    34    18    23    1
    35     9    10    1
    36     9    11    1
    37    10    12    1
    38    11     5    1
    39    33    34    1
    40    33    35    1
    41    34    36    1
    42    35    37    1
    43    36    42    1
    44    20    21   ar
    45    21    22   ar
@<TRIPOS>MOLECULE
*****
 43 45 0 0 0
SMALL
GASTEIGER

@<TRIPOS>ATOM
      1 P          22.5792   73.3076   -4.4261 P.3     1  UNL1        0.2189
      2 O          22.7824   74.2106   -5.7530 O.co2   1  UNL1       -0.4371
      3 O          23.8320   72.6816   -3.8875 O.2     1  UNL1       -0.5170
      4 O          21.3987   72.2788   -4.8334 O.3     1  UNL1       -0.3112
      5 C          20.8716   71.4244   -3.8334 C.3     1  UNL1        0.1811
      6 O          18.8537   72.1884   -4.8908 O.3     1  UNL1       -0.3308
      7 O          17.4032   71.0305   -2.5358 O.3     1  UNL1       -0.3794
      8 O          17.0413   69.1247   -4.4524 O.3     1  UNL1       -0.3779
      9 C          18.5673   70.5480   -3.2047 C.3     1  UNL1        0.1713
     10 C          18.1923   69.9398   -4.5400 C.3     1  UNL1        0.1895
     11 C          19.3993   71.7527   -3.6264 C.3     1  UNL1        0.1764
     12 C          17.9707   71.1742   -5.3974 C.3     1  UNL1        0.2383
     13 H          16.8561   70.2790   -2.2566 H       1  UNL1        0.2105
     14 H          17.2328   68.3531   -3.8969 H       1  UNL1        0.2106
     15 O          16.0717   70.3923   -7.3366 O.2     1  UNL1       -0.2464
     16 O          19.2461   70.3079  -10.6768 O.2     1  UNL1       -0.2670
     17 N          18.2734   70.9413   -6.7814 N.ar    1  UNL1       -0.2551
     18 N          17.6538   70.3511   -8.9982 N.ar    1  UNL1       -0.2743
     19 C          17.2471   70.5507   -7.6728 C.ar    1  UNL1        0.3323
     20 C          19.5757   71.1008   -7.2423 C.ar    1  UNL1        0.0869
     21 C          19.9474   70.9052   -8.5091 C.ar    1  UNL1        0.0795
     22 C          18.9358   70.4956   -9.5045 C.ar    1  UNL1        0.2626
     23 H          16.9559   70.0781   -9.6371 H       1  UNL1        0.1734
     24 O          21.8416   74.3216   -3.4059 O.3     1  UNL1       -0.2703
     25 P          22.3481   74.9941   -2.0260 P.3     1  UNL1        0.2208
     26 O          21.2803   76.1843   -1.7794 O.co2   1  UNL1       -0.4371
     27 O          23.7807   75.4424   -2.0496 O.2     1  UNL1       -0.5170
     28 O          22.0083   73.8997   -0.8894 O.3     1  UNL1       -0.2858
     29 O          23.2324   73.8236    1.1385 O.3     1  UNL1       -0.3258
     30 O          21.8354   69.9385    1.0648 O.3     1  UNL1       -0.3794
     31 O          20.7217   71.8105    2.9365 O.3     1  UNL1       -0.3794
     32 O          22.6704   71.2196   -1.3931 O.3     1  UNL1       -0.3775
     33 C          21.7748   71.3494    0.8390 C.3     1  UNL1        0.1715
     34 C          21.9092   72.0573    2.1887 C.3     1  UNL1        0.1694
     35 C          22.9124   71.7546   -0.0963 C.3     1  UNL1        0.1967
     36 C          22.1207   73.5660    2.0043 C.3     1  UNL1        0.1761
     37 C          23.0684   73.2746   -0.1705 C.3     1  UNL1        0.2704
     38 H          21.1154   69.6745    1.6576 H       1  UNL1        0.2105
     39 H          20.5996   70.8542    3.0454 H       1  UNL1        0.2105
     40 H          22.5738   70.2568   -1.3326 H       1  UNL1        0.2106
     41 O          23.0074   75.5233    3.0492 O.3     1  UNL1       -0.3794
     42 C          22.4143   74.2684    3.3282 C.3     1  UNL1        0.1693
     43 H          23.1995   75.9818    3.8826 H       1  UNL1        0.2105
@<TRIPOS>UNITY_ATOM_ATTR
2 1
charge -1
26 1
charge -1
@<TRIPOS>BOND
     1    25    28    1
     2    25    24    1
     3    25    26    1
     4    25    27    2
     5     1     4    1
     6     1    24    1
     7     1     2    1
     8     1     3    2
     9     6    11    1
    10     6    12    1
    11    29    36    1
    12    29    37    1
    13     7     9    1
    14     7    13    1
    15     8    10    1
    16     8    14    1
    17    28    37    1
    18     4     5    1
    19    30    33    1
    20    30    38    1
    21    31    34    1
    22    31    39    1
    23    32    35    1
    24    32    40    1
    25    41    42    1
    26    41    43    1
    27    15    19    2
    28    16    22    2
    29    17    12    1
    30    17    19   ar
    31    17    20   ar
    32    18    19   ar
    33    18    22   ar
    34    18    23    1
    35     9    10    1
    36     9    11    1
    37    10    12    1
    38    11     5    1
    39    33    34    1
    40    33    35    1
    41    34    36    1
    42    35    37    1
    43    36    42    1
    44    20    21   ar
    45    21    22   ar
@<TRIPOS>MOLECULE
*****
 43 45 0 0 0
SMALL
GASTEIGER

@<TRIPOS>ATOM
      1 P          20.6908   73.3809   -1.2366 P.3     1  UNL1        0.2189
      2 O          19.3694   74.2648   -0.9366 O.co2   1  UNL1       -0.4371
      3 O          21.9896   74.1231   -1.1202 O.2     1  UNL1       -0.5170
      4 O          20.3910   72.7112   -2.6787 O.3     1  UNL1       -0.3112
      5 C          19.1319   72.9463   -3.2847 C.3     1  UNL1        0.1811
      6 O          17.5577   71.4741   -4.3469 O.3     1  UNL1       -0.3308
      7 O          18.1938   69.5216   -2.1620 O.3     1  UNL1       -0.3794
      8 O          19.6650   68.5735   -4.2533 O.3     1  UNL1       -0.3779
      9 C          19.0553   70.4449   -2.8259 C.3     1  UNL1        0.1713
     10 C          19.3732   69.9558   -4.2235 C.3     1  UNL1        0.1895
     11 C          18.2578   71.7125   -3.1062 C.3     1  UNL1        0.1764
     12 C          18.0990   70.3008   -4.9755 C.3     1  UNL1        0.2383
     13 H          18.6812   68.7040   -1.9722 H       1  UNL1        0.2105
     14 H          20.4840   68.4051   -3.7617 H       1  UNL1        0.2106
     15 O          16.1505   70.0953   -7.0099 O.2     1  UNL1       -0.2464
     16 O          19.1411   71.4116  -10.2603 O.2     1  UNL1       -0.2670
     17 N          18.3410   70.5842   -6.3620 N.ar    1  UNL1       -0.2551
     18 N          17.6411   70.7511   -8.6267 N.ar    1  UNL1       -0.2743
     19 C          17.2943   70.4490   -7.3036 C.ar    1  UNL1        0.3323
     20 C          19.6046   70.9915   -6.7758 C.ar    1  UNL1        0.0869
     21 C          19.9194   71.2746   -8.0415 C.ar    1  UNL1        0.0795
     22 C          18.8830   71.1585   -9.0876 C.ar    1  UNL1        0.2626
     23 H          16.9280   70.6636   -9.3002 H       1  UNL1        0.1734
     24 O          20.5340   72.1355   -0.2181 O.3     1  UNL1       -0.2703
     25 P          21.5874   71.4641    0.8079 P.3     1  UNL1        0.2208
     26 O          22.9836   72.1916    0.4351 O.co2   1  UNL1       -0.4371
     27 O          21.6349   69.9647    0.7474 O.2     1  UNL1       -0.5170
     28 O          21.1888   72.0629    2.2527 O.3     1  UNL1       -0.2858
     29 O          20.2320   74.1743    2.7458 O.3     1  UNL1       -0.3258
     30 O          22.5461   73.6917    6.1315 O.3     1  UNL1       -0.3794
     31 O          19.6913   73.4392    6.3174 O.3     1  UNL1       -0.3794
     32 O          23.5524   72.8256    3.5591 O.3     1  UNL1       -0.3775
     33 C          21.7128   73.2635    5.0509 C.3     1  UNL1        0.1715
     34 C          20.3619   73.9705    5.1779 C.3     1  UNL1        0.1694
     35 C          22.3861   73.6242    3.7281 C.3     1  UNL1        0.1967
     36 C          19.5114   73.7709    3.9162 C.3     1  UNL1        0.1761
     37 C          21.4383   73.4360    2.5421 C.3     1  UNL1        0.2704
     38 H          22.1245   73.4652    6.9744 H       1  UNL1        0.2105
     39 H          20.2391   73.5712    7.1071 H       1  UNL1        0.2105
     40 H          24.1443   72.9538    4.3161 H       1  UNL1        0.2106
     41 O          18.3137   75.5109    5.0327 O.3     1  UNL1       -0.3794
     42 C          18.2270   74.5960    3.9558 C.3     1  UNL1        0.1693
     43 H          17.5031   76.0432    5.0700 H       1  UNL1        0.2105
@<TRIPOS>UNITY_ATOM_ATTR
2 1
charge -1
26 1
charge -1
@<TRIPOS>BOND
     1    25    28    1
     2    25    24    1
     3    25    26    1
     4    25    27    2
     5     1     4    1
     6     1    24    1
     7     1     2    1
     8     1     3    2
     9     6    11    1
    10     6    12    1
    11    29    36    1
    12    29    37    1
    13     7     9    1
    14     7    13    1
    15     8    10    1
    16     8    14    1
    17    28    37    1
    18     4     5    1
    19    30    33    1
    20    30    38    1
    21    31    34    1
    22    31    39    1
    23    32    35    1
    24    32    40    1
    25    41    42    1
    26    41    43    1
    27    15    19    2
    28    16    22    2
    29    17    12    1
    30    17    19   ar
    31    17    20   ar
    32    18    19   ar
    33    18    22   ar
    34    18    23    1
    35     9    10    1
    36     9    11    1
    37    10    12    1
    38    11     5    1
    39    33    34    1
    40    33    35    1
    41    34    36    1
    42    35    37    1
    43    36    42    1
    44    20    21   ar
    45    21    22   ar
@<TRIPOS>MOLECULE
*****
 43 45 0 0 0
SMALL
GASTEIGER

@<TRIPOS>ATOM
      1 P          22.2536   70.7564   -1.3062 P.3     1  UNL1        0.2189
      2 O          22.6668   72.0427   -2.1963 O.co2   1  UNL1       -0.4371
      3 O          23.3990   70.0520   -0.6405 O.2     1  UNL1       -0.5170
      4 O          21.3652   69.8555   -2.3146 O.3     1  UNL1       -0.3112
      5 C          20.9383   70.4307   -3.5372 C.3     1  UNL1        0.1811
      6 O          19.2408   71.8015   -4.5438 O.3     1  UNL1       -0.3308
      7 O          17.4583   70.9134   -2.3022 O.3     1  UNL1       -0.3794
      8 O          16.6434   69.3345   -4.3709 O.3     1  UNL1       -0.3779
      9 C          18.4642   70.1804   -2.9996 C.3     1  UNL1        0.1713
     10 C          17.9763   69.8036   -4.3829 C.3     1  UNL1        0.1895
     11 C          19.6077   71.1365   -3.3152 C.3     1  UNL1        0.1764
     12 C          18.1284   71.1129   -5.1382 C.3     1  UNL1        0.2383
     13 H          16.7175   70.3235   -2.0895 H       1  UNL1        0.2105
     14 H          16.5986   68.4998   -3.8788 H       1  UNL1        0.2106
     15 O          16.1496   70.5838   -7.0831 O.2     1  UNL1       -0.2464
     16 O          19.2732   70.3573  -10.4644 O.2     1  UNL1       -0.2670
     17 N          18.3965   70.9119   -6.5343 N.ar    1  UNL1       -0.2551
     18 N          17.7065   70.4716   -8.7651 N.ar    1  UNL1       -0.2743
     19 C          17.3313   70.6513   -7.4276 C.ar    1  UNL1        0.3323
     20 C          19.7036   70.9743   -7.0050 C.ar    1  UNL1        0.0869
     21 C          20.0448   70.7995   -8.2834 C.ar    1  UNL1        0.0795
     22 C          18.9916   70.5229   -9.2815 C.ar    1  UNL1        0.2626
     23 H          16.9812   70.2885   -9.4056 H       1  UNL1        0.1734
     24 O          21.1507   71.3576   -0.2888 O.3     1  UNL1       -0.2703
     25 P          21.2765   72.4714    0.8760 P.3     1  UNL1        0.2208
     26 O          22.7609   73.0751    0.6534 O.co2   1  UNL1       -0.4371
     27 O          21.0224   71.9465    2.2594 O.2     1  UNL1       -0.5170
     28 O          20.2815   73.6565    0.4171 O.3     1  UNL1       -0.2858
     29 O          18.4085   73.6740   -1.0349 O.3     1  UNL1       -0.3258
     30 O          20.0923   77.2947   -2.0865 O.3     1  UNL1       -0.3794
     31 O          17.6716   77.2520   -0.5416 O.3     1  UNL1       -0.3794
     32 O          21.7932   75.0240   -1.5117 O.3     1  UNL1       -0.3775
     33 C          19.7342   76.2337   -1.1969 C.3     1  UNL1        0.1715
     34 C          18.2097   76.1048   -1.1932 C.3     1  UNL1        0.1694
     35 C          20.3822   74.9374   -1.6798 C.3     1  UNL1        0.1967
     36 C          17.7638   74.8240   -0.4750 C.3     1  UNL1        0.1761
     37 C          19.8332   73.7196   -0.9344 C.3     1  UNL1        0.2704
     38 H          19.6844   78.1208   -1.7852 H       1  UNL1        0.2105
     39 H          17.9611   78.0539   -1.0046 H       1  UNL1        0.2105
     40 H          22.1285   75.7986   -1.9885 H       1  UNL1        0.2106
     41 O          16.0425   73.2954   -1.1150 O.3     1  UNL1       -0.3794
     42 C          16.2588   74.5948   -0.5961 C.3     1  UNL1        0.1693
     43 H          15.0889   73.1355   -1.1972 H       1  UNL1        0.2105
@<TRIPOS>UNITY_ATOM_ATTR
2 1
charge -1
26 1
charge -1
@<TRIPOS>BOND
     1    25    28    1
     2    25    24    1
     3    25    26    1
     4    25    27    2
     5     1     4    1
     6     1    24    1
     7     1     2    1
     8     1     3    2
     9     6    11    1
    10     6    12    1
    11    29    36    1
    12    29    37    1
    13     7     9    1
    14     7    13    1
    15     8    10    1
    16     8    14    1
    17    28    37    1
    18     4     5    1
    19    30    33    1
    20    30    38    1
    21    31    34    1
    22    31    39    1
    23    32    35    1
    24    32    40    1
    25    41    42    1
    26    41    43    1
    27    15    19    2
    28    16    22    2
    29    17    12    1
    30    17    19   ar
    31    17    20   ar
    32    18    19   ar
    33    18    22   ar
    34    18    23    1
    35     9    10    1
    36     9    11    1
    37    10    12    1
    38    11     5    1
    39    33    34    1
    40    33    35    1
    41    34    36    1
    42    35    37    1
    43    36    42    1
    44    20    21   ar
    45    21    22   ar
@<TRIPOS>MOLECULE
*****
 43 45 0 0 0
SMALL
GASTEIGER

@<TRIPOS>ATOM
      1 P          22.5189   73.1356   -4.4972 P.3     1  UNL1        0.2189
      2 O          21.6762   74.4806   -4.1837 O.co2   1  UNL1       -0.4371
      3 O          22.4566   72.6661   -5.9209 O.2     1  UNL1       -0.5170
      4 O          21.9960   72.0819   -3.3863 O.3     1  UNL1       -0.3112
      5 C          21.1177   71.0480   -3.7957 C.3     1  UNL1        0.1811
      6 O          19.1371   72.0145   -4.7533 O.3     1  UNL1       -0.3308
      7 O          17.6683   70.8689   -2.4036 O.3     1  UNL1       -0.3794
      8 O          17.1000   69.0856   -4.3869 O.3     1  UNL1       -0.3779
      9 C          18.7702   70.3274   -3.1301 C.3     1  UNL1        0.1713
     10 C          18.3092   69.8111   -4.4771 C.3     1  UNL1        0.1895
     11 C          19.6830   71.4809   -3.5270 C.3     1  UNL1        0.1764
     12 C          18.1618   71.0964   -5.2735 C.3     1  UNL1        0.2383
     13 H          17.0714   70.1508   -2.1390 H       1  UNL1        0.2105
     14 H          17.2455   68.2771   -3.8712 H       1  UNL1        0.2106
     15 O          16.1825   70.3597   -7.1491 O.2     1  UNL1       -0.2464
     16 O          19.2083   70.3814  -10.6254 O.2     1  UNL1       -0.2670
     17 N          18.4045   70.9031   -6.6753 N.ar    1  UNL1       -0.2551
     18 N          17.6907   70.3713   -8.8785 N.ar    1  UNL1       -0.2743
     19 C          17.3415   70.5326   -7.5316 C.ar    1  UNL1        0.3323
     20 C          19.6849   71.0809   -7.1879 C.ar    1  UNL1        0.0869
     21 C          20.0016   70.9220   -8.4746 C.ar    1  UNL1        0.0795
     22 C          18.9488   70.5354   -9.4360 C.ar    1  UNL1        0.2626
     23 H          16.9664   70.1130   -9.4937 H       1  UNL1        0.1734
     24 O          24.0032   73.5068   -3.9756 O.3     1  UNL1       -0.2703
     25 P          24.5837   74.8539   -3.2964 P.3     1  UNL1        0.2208
     26 O          24.1500   74.7038   -1.7449 O.co2   1  UNL1       -0.4371
     27 O          24.1175   76.1227   -3.9497 O.2     1  UNL1       -0.5170
     28 O          26.1851   74.6525   -3.2933 O.3     1  UNL1       -0.2858
     29 O          28.1344   75.7937   -2.5761 O.3     1  UNL1       -0.3258
     30 O          29.1927   75.0841   -6.5039 O.3     1  UNL1       -0.3794
     31 O          30.4647   73.5969   -4.4019 O.3     1  UNL1       -0.3794
     32 O          26.4607   75.7809   -5.8478 O.3     1  UNL1       -0.3775
     33 C          28.5736   74.7921   -5.2482 C.3     1  UNL1        0.1715
     34 C          29.6626   74.7524   -4.1743 C.3     1  UNL1        0.1694
     35 C          27.5471   75.8786   -4.9331 C.3     1  UNL1        0.1967
     36 C          29.0517   74.7102   -2.7671 C.3     1  UNL1        0.1761
     37 C          27.0393   75.7756   -3.4938 C.3     1  UNL1        0.2704
     38 H          29.8453   74.3977   -6.7101 H       1  UNL1        0.2105
     39 H          30.8440   73.6358   -5.2939 H       1  UNL1        0.2105
     40 H          26.7952   75.8478   -6.7553 H       1  UNL1        0.2106
     41 O          30.7233   76.1036   -1.7807 O.3     1  UNL1       -0.3794
     42 C          30.1155   74.8291   -1.6780 C.3     1  UNL1        0.1693
     43 H          31.4024   76.1937   -1.0934 H       1  UNL1        0.2105
@<TRIPOS>UNITY_ATOM_ATTR
2 1
charge -1
26 1
charge -1
@<TRIPOS>BOND
     1    25    28    1
     2    25    24    1
     3    25    26    1
     4    25    27    2
     5     1     4    1
     6     1    24    1
     7     1     2    1
     8     1     3    2
     9     6    11    1
    10     6    12    1
    11    29    36    1
    12    29    37    1
    13     7     9    1
    14     7    13    1
    15     8    10    1
    16     8    14    1
    17    28    37    1
    18     4     5    1
    19    30    33    1
    20    30    38    1
    21    31    34    1
    22    31    39    1
    23    32    35    1
    24    32    40    1
    25    41    42    1
    26    41    43    1
    27    15    19    2
    28    16    22    2
    29    17    12    1
    30    17    19   ar
    31    17    20   ar
    32    18    19   ar
    33    18    22   ar
    34    18    23    1
    35     9    10    1
    36     9    11    1
    37    10    12    1
    38    11     5    1
    39    33    34    1
    40    33    35    1
    41    34    36    1
    42    35    37    1
    43    36    42    1
    44    20    21   ar
    45    21    22   ar
@<TRIPOS>MOLECULE
*****
 43 45 0 0 0
SMALL
GASTEIGER

@<TRIPOS>ATOM
      1 P          20.3338   73.2429   -1.2325 P.3     1  UNL1        0.2189
      2 O          19.1793   73.9851   -0.3759 O.co2   1  UNL1       -0.4371
      3 O          21.5271   74.0926   -1.5575 O.2     1  UNL1       -0.5170
      4 O          19.5412   72.6294   -2.5027 O.3     1  UNL1       -0.3112
      5 C          18.1252   72.5938   -2.4632 C.3     1  UNL1        0.1811
      6 O          17.0465   71.1196   -4.0242 O.3     1  UNL1       -0.3308
      7 O          18.2561   68.8721   -2.4505 O.3     1  UNL1       -0.3794
      8 O          19.9195   69.0525   -4.6039 O.3     1  UNL1       -0.3779
      9 C          18.7981   70.1571   -2.7509 C.3     1  UNL1        0.1713
     10 C          19.2317   70.2191   -4.2007 C.3     1  UNL1        0.1895
     11 C          17.6579   71.1671   -2.7164 C.3     1  UNL1        0.1764
     12 C          17.9044   70.3931   -4.9193 C.3     1  UNL1        0.2383
     13 H          18.9659   68.2103   -2.4663 H       1  UNL1        0.2105
     14 H          20.7569   68.9868   -4.1189 H       1  UNL1        0.2106
     15 O          16.1178   70.2064   -7.0989 O.2     1  UNL1       -0.2464
     16 O          18.5119   73.2802   -9.5609 O.2     1  UNL1       -0.2670
     17 N          18.0367   71.1336   -6.1422 N.ar    1  UNL1       -0.2551
     18 N          17.3112   71.7372   -8.3230 N.ar    1  UNL1       -0.2743
     19 C          17.0855   70.9662   -7.1755 C.ar    1  UNL1        0.3323
     20 C          19.1001   72.0143   -6.3075 C.ar    1  UNL1        0.0869
     21 C          19.3018   72.7413   -7.4084 C.ar    1  UNL1        0.0795
     22 C          18.3538   72.6253   -8.5353 C.ar    1  UNL1        0.2626
     23 H          16.6616   71.6368   -9.0562 H       1  UNL1        0.1734
     24 O          20.6622   71.9341   -0.3425 O.3     1  UNL1       -0.2703
     25 P          21.9846   71.5212    0.4903 P.3     1  UNL1        0.2208
     26 O          23.1719   71.6764   -0.5977 O.co2   1  UNL1       -0.4371
     27 O          21.9083   70.1673    1.1347 O.2     1  UNL1       -0.5170
     28 O          22.2151   72.7409    1.5220 O.3     1  UNL1       -0.2858
     29 O          23.7991   73.1205    3.2434 O.3     1  UNL1       -0.3258
     30 O          20.4191   74.5613    5.1276 O.3     1  UNL1       -0.3794
     31 O          22.4231   76.4015    4.2079 O.3     1  UNL1       -0.3794
     32 O          20.2446   72.2100    3.4482 O.3     1  UNL1       -0.3775
     33 C          21.2833   74.3074    4.0168 C.3     1  UNL1        0.1715
     34 C          22.6243   74.9930    4.2859 C.3     1  UNL1        0.1694
     35 C          21.4716   72.7990    3.8654 C.3     1  UNL1        0.1967
     36 C          23.6873   74.5482    3.2723 C.3     1  UNL1        0.1761
     37 C          22.5849   72.4658    2.8706 C.3     1  UNL1        0.2704
     38 H          20.2950   75.5172    5.2289 H       1  UNL1        0.2105
     39 H          21.7493   76.6692    4.8526 H       1  UNL1        0.2105
     40 H          19.5480   72.4279    4.0863 H       1  UNL1        0.2106
     41 O          25.4059   74.6812    4.9269 O.3     1  UNL1       -0.3794
     42 C          25.0703   75.0971    3.6159 C.3     1  UNL1        0.1693
     43 H          26.2839   75.0231    5.1591 H       1  UNL1        0.2105
@<TRIPOS>UNITY_ATOM_ATTR
2 1
charge -1
26 1
charge -1
@<TRIPOS>BOND
     1    25    28    1
     2    25    24    1
     3    25    26    1
     4    25    27    2
     5     1     4    1
     6     1    24    1
     7     1     2    1
     8     1     3    2
     9     6    11    1
    10     6    12    1
    11    29    36    1
    12    29    37    1
    13     7     9    1
    14     7    13    1
    15     8    10    1
    16     8    14    1
    17    28    37    1
    18     4     5    1
    19    30    33    1
    20    30    38    1
    21    31    34    1
    22    31    39    1
    23    32    35    1
    24    32    40    1
    25    41    42    1
    26    41    43    1
    27    15    19    2
    28    16    22    2
    29    17    12    1
    30    17    19   ar
    31    17    20   ar
    32    18    19   ar
    33    18    22   ar
    34    18    23    1
    35     9    10    1
    36     9    11    1
    37    10    12    1
    38    11     5    1
    39    33    34    1
    40    33    35    1
    41    34    36    1
    42    35    37    1
    43    36    42    1
    44    20    21   ar
    45    21    22   ar
@<TRIPOS>MOLECULE
*****
 43 45 0 0 0
SMALL
GASTEIGER

@<TRIPOS>ATOM
      1 P          22.3253   73.3367   -5.2877 P.3     1  UNL1        0.2189
      2 O          22.6619   74.8220   -5.8338 O.co2   1  UNL1       -0.4371
      3 O          23.4843   72.6109   -4.6701 O.2     1  UNL1       -0.5170
      4 O          21.6321   72.6053   -6.5535 O.3     1  UNL1       -0.3112
      5 C          20.8418   73.3841   -7.4349 C.3     1  UNL1        0.1811
      6 O          20.0005   71.1682   -7.8297 O.3     1  UNL1       -0.3308
      7 O          18.4793   72.3567  -10.1240 O.3     1  UNL1       -0.3794
      8 O          16.5696   72.1495   -8.1883 O.3     1  UNL1       -0.3779
      9 C          18.7777   72.9234   -8.8493 C.3     1  UNL1        0.1713
     10 C          17.9143   72.2913   -7.7776 C.3     1  UNL1        0.1895
     11 C          20.1730   72.4630   -8.4461 C.3     1  UNL1        0.1764
     12 C          18.6045   70.9547   -7.5646 C.3     1  UNL1        0.2383
     13 H          17.5929   72.6369  -10.4028 H       1  UNL1        0.2105
     14 H          16.1745   73.0269   -8.3104 H       1  UNL1        0.2106
     15 O          16.2754   69.7012   -6.5736 O.2     1  UNL1       -0.2464
     16 O          18.1388   69.1300   -2.3971 O.2     1  UNL1       -0.2670
     17 N          18.4538   70.4683   -6.2222 N.ar    1  UNL1       -0.2551
     18 N          17.2052   69.4177   -4.4949 N.ar    1  UNL1       -0.2743
     19 C          17.2427   69.8551   -5.8250 C.ar    1  UNL1        0.3323
     20 C          19.4998   70.6011   -5.3155 C.ar    1  UNL1        0.0869
     21 C          19.4476   70.1798   -4.0502 C.ar    1  UNL1        0.0795
     22 C          18.2179   69.5281   -3.5552 C.ar    1  UNL1        0.2626
     23 H          16.3713   68.9877   -4.1957 H       1  UNL1        0.1734
     24 O          21.0806   73.5904   -4.2881 O.3     1  UNL1       -0.2703
     25 P          21.0318   74.1647   -2.7779 P.3     1  UNL1        0.2208
     26 O          19.4851   74.6039   -2.5978 O.co2   1  UNL1       -0.4371
     27 O          22.0222   75.2590   -2.5035 O.2     1  UNL1       -0.5170
     28 O          21.1975   72.8619   -1.8398 O.3     1  UNL1       -0.2858
     29 O          22.8942   73.3243   -0.2512 O.3     1  UNL1       -0.3258
     30 O          22.1197   69.3905    0.7368 O.3     1  UNL1       -0.3794
     31 O          21.2524   71.4908    2.4932 O.3     1  UNL1       -0.3794
     32 O          22.1015   70.2127   -2.0386 O.3     1  UNL1       -0.3775
     33 C          21.7940   70.7120    0.2975 C.3     1  UNL1        0.1715
     34 C          22.1602   71.6923    1.4135 C.3     1  UNL1        0.1694
     35 C          22.5828   71.0243   -0.9728 C.3     1  UNL1        0.1967
     36 C          22.0905   73.1440    0.9207 C.3     1  UNL1        0.1761
     37 C          22.4864   72.5042   -1.3480 C.3     1  UNL1        0.2704
     38 H          21.6218   69.1857    1.5428 H       1  UNL1        0.2105
     39 H          21.3060   70.5702    2.7947 H       1  UNL1        0.2105
     40 H          22.1682   69.2783   -1.7889 H       1  UNL1        0.2106
     41 O          22.1141   73.7312    3.2366 O.3     1  UNL1       -0.3794
     42 C          22.6031   74.1291    1.9690 C.3     1  UNL1        0.1693
     43 H          22.4326   74.3490    3.9138 H       1  UNL1        0.2105
@<TRIPOS>UNITY_ATOM_ATTR
2 1
charge -1
26 1
charge -1
@<TRIPOS>BOND
     1    25    28    1
     2    25    24    1
     3    25    26    1
     4    25    27    2
     5     1     4    1
     6     1    24    1
     7     1     2    1
     8     1     3    2
     9     6    11    1
    10     6    12    1
    11    29    36    1
    12    29    37    1
    13     7     9    1
    14     7    13    1
    15     8    10    1
    16     8    14    1
    17    28    37    1
    18     4     5    1
    19    30    33    1
    20    30    38    1
    21    31    34    1
    22    31    39    1
    23    32    35    1
    24    32    40    1
    25    41    42    1
    26    41    43    1
    27    15    19    2
    28    16    22    2
    29    17    12    1
    30    17    19   ar
    31    17    20   ar
    32    18    19   ar
    33    18    22   ar
    34    18    23    1
    35     9    10    1
    36     9    11    1
    37    10    12    1
    38    11     5    1
    39    33    34    1
    40    33    35    1
    41    34    36    1
    42    35    37    1
    43    36    42    1
    44    20    21   ar
    45    21    22   ar
@<TRIPOS>MOLECULE
*****
 43 45 0 0 0
SMALL
GASTEIGER

@<TRIPOS>ATOM
      1 P          22.5952   73.0396   -4.3039 P.3     1  UNL1        0.2189
      2 O          22.1750   72.3302   -5.6959 O.co2   1  UNL1       -0.4371
      3 O          24.0528   72.9469   -3.9601 O.2     1  UNL1       -0.5170
      4 O          21.5759   72.4032   -3.2204 O.3     1  UNL1       -0.3112
      5 C          20.7580   71.3167   -3.6184 C.3     1  UNL1        0.1811
      6 O          18.8090   72.1867   -4.7223 O.3     1  UNL1       -0.3308
      7 O          17.2381   71.0620   -2.4293 O.3     1  UNL1       -0.3794
      8 O          16.8484   69.2025   -4.3856 O.3     1  UNL1       -0.3779
      9 C          18.3988   70.5369   -3.0714 C.3     1  UNL1        0.1713
     10 C          18.0370   69.9657   -4.4265 C.3     1  UNL1        0.1895
     11 C          19.2964   71.7085   -3.4494 C.3     1  UNL1        0.1764
     12 C          17.8969   71.2212   -5.2704 C.3     1  UNL1        0.2383
     13 H          16.6496   70.3322   -2.1782 H       1  UNL1        0.2105
     14 H          16.9883   68.4150   -3.8369 H       1  UNL1        0.2106
     15 O          16.0529   70.3916   -7.2426 O.2     1  UNL1       -0.2464
     16 O          19.2882   70.3827  -10.5250 O.2     1  UNL1       -0.2670
     17 N          18.2301   70.9948   -6.6485 N.ar    1  UNL1       -0.2551
     18 N          17.6653   70.3880   -8.8754 N.ar    1  UNL1       -0.2743
     19 C          17.2299   70.5786   -7.5578 C.ar    1  UNL1        0.3323
     20 C          19.5363   71.1858   -7.0860 C.ar    1  UNL1        0.0869
     21 C          19.9355   70.9985   -8.3457 C.ar    1  UNL1        0.0795
     22 C          18.9523   70.5635   -9.3587 C.ar    1  UNL1        0.2626
     23 H          16.9859   70.0976   -9.5265 H       1  UNL1        0.1734
     24 O          22.0407   74.5474   -4.4825 O.3     1  UNL1       -0.2703
     25 P          22.6566   75.8188   -5.2681 P.3     1  UNL1        0.2208
     26 O          24.0002   76.1562   -4.4324 O.co2   1  UNL1       -0.4371
     27 O          21.7080   76.9740   -5.4083 O.2     1  UNL1       -0.5170
     28 O          23.1878   75.2160   -6.6679 O.3     1  UNL1       -0.2858
     29 O          22.2340   76.4593   -8.4459 O.3     1  UNL1       -0.3258
     30 O          24.1644   73.5430  -10.6412 O.3     1  UNL1       -0.3794
     31 O          25.2047   76.2197  -10.6153 O.3     1  UNL1       -0.3794
     32 O          22.8693   72.8520   -8.1463 O.3     1  UNL1       -0.3775
     33 C          23.9917   74.4536   -9.5521 C.3     1  UNL1        0.1715
     34 C          23.9145   75.8720  -10.1205 C.3     1  UNL1        0.1694
     35 C          22.7055   74.1023   -8.8068 C.3     1  UNL1        0.1967
     36 C          23.4651   76.8745   -9.0491 C.3     1  UNL1        0.1761
     37 C          22.3218   75.1879   -7.7996 C.3     1  UNL1        0.2704
     38 H          24.9797   73.7602  -11.1183 H       1  UNL1        0.2105
     39 H          25.4769   75.5787  -11.2907 H       1  UNL1        0.2105
     40 H          23.1117   72.1733   -8.7946 H       1  UNL1        0.2106
     41 O          21.8578   78.5870   -9.4883 O.3     1  UNL1       -0.3794
     42 C          23.2293   78.2665   -9.6313 C.3     1  UNL1        0.1693
     43 H          21.6930   79.4705   -9.8543 H       1  UNL1        0.2105
@<TRIPOS>UNITY_ATOM_ATTR
2 1
charge -1
26 1
charge -1
@<TRIPOS>BOND
     1    25    28    1
     2    25    24    1
     3    25    26    1
     4    25    27    2
     5     1     4    1
     6     1    24    1
     7     1     2    1
     8     1     3    2
     9     6    11    1
    10     6    12    1
    11    29    36    1
    12    29    37    1
    13     7     9    1
    14     7    13    1
    15     8    10    1
    16     8    14    1
    17    28    37    1
    18     4     5    1
    19    30    33    1
    20    30    38    1
    21    31    34    1
    22    31    39    1
    23    32    35    1
    24    32    40    1
    25    41    42    1
    26    41    43    1
    27    15    19    2
    28    16    22    2
    29    17    12    1
    30    17    19   ar
    31    17    20   ar
    32    18    19   ar
    33    18    22   ar
    34    18    23    1
    35     9    10    1
    36     9    11    1
    37    10    12    1
    38    11     5    1
    39    33    34    1
    40    33    35    1
    41    34    36    1
    42    35    37    1
    43    36    42    1
    44    20    21   ar
    45    21    22   ar
@<TRIPOS>MOLECULE
*****
 43 45 0 0 0
SMALL
GASTEIGER

@<TRIPOS>ATOM
      1 P          22.4655   74.6146   -8.5220 P.3     1  UNL1        0.2189
      2 O          21.5123   75.8221   -9.0229 O.co2   1  UNL1       -0.4371
      3 O          23.9370   74.8607   -8.6820 O.2     1  UNL1       -0.5170
      4 O          21.8827   73.3154   -9.2904 O.3     1  UNL1       -0.3112
      5 C          21.1422   72.3647   -8.5450 C.3     1  UNL1        0.1811
      6 O          19.2887   70.8437   -8.7018 O.3     1  UNL1       -0.3308
      7 O          17.9356   72.9564  -10.3439 O.3     1  UNL1       -0.3794
      8 O          16.7710   73.2681   -7.8979 O.3     1  UNL1       -0.3779
      9 C          18.8038   73.1043   -9.2215 C.3     1  UNL1        0.1713
     10 C          18.0790   72.7355   -7.9439 C.3     1  UNL1        0.1895
     11 C          19.8700   72.0193   -9.3069 C.3     1  UNL1        0.1764
     12 C          18.0905   71.2175   -8.0021 C.3     1  UNL1        0.2383
     13 H          17.2462   73.6388  -10.3114 H       1  UNL1        0.2105
     14 H          16.8170   74.2363   -7.8618 H       1  UNL1        0.2106
     15 O          15.9431   69.7599   -6.8876 O.2     1  UNL1       -0.2464
     16 O          18.2648   68.9696   -2.9855 O.2     1  UNL1       -0.2670
     17 N          18.1068   70.6194   -6.6969 N.ar    1  UNL1       -0.2551
     18 N          17.1009   69.3674   -4.9457 N.ar    1  UNL1       -0.2743
     19 C          16.9758   69.9092   -6.2313 C.ar    1  UNL1        0.3323
     20 C          19.2356   70.7399   -5.8936 C.ar    1  UNL1        0.0869
     21 C          19.3385   70.2184   -4.6694 C.ar    1  UNL1        0.0795
     22 C          18.2011   69.4611   -4.1081 C.ar    1  UNL1        0.2626
     23 H          16.3253   68.8686   -4.6002 H       1  UNL1        0.1734
     24 O          21.9844   74.3807   -6.9966 O.3     1  UNL1       -0.2703
     25 P          22.3267   75.1897   -5.6397 P.3     1  UNL1        0.2208
     26 O          21.3500   76.4771   -5.7189 O.co2   1  UNL1       -0.4371
     27 O          23.7806   75.5247   -5.4731 O.2     1  UNL1       -0.5170
     28 O          21.7096   74.2821   -4.4563 O.3     1  UNL1       -0.2858
     29 O          21.4024   74.4837   -2.1150 O.3     1  UNL1       -0.3258
     30 O          23.0168   70.6853   -2.2439 O.3     1  UNL1       -0.3794
     31 O          20.2246   71.0203   -1.6611 O.3     1  UNL1       -0.3794
     32 O          24.0133   72.7389   -4.0241 O.3     1  UNL1       -0.3775
     33 C          22.2315   71.7840   -2.7147 C.3     1  UNL1        0.1715
     34 C          21.1620   72.0934   -1.6654 C.3     1  UNL1        0.1694
     35 C          23.1411   72.9925   -2.9280 C.3     1  UNL1        0.1967
     36 C          20.4538   73.4202   -1.9708 C.3     1  UNL1        0.1761
     37 C          22.3354   74.2690   -3.1758 C.3     1  UNL1        0.2704
     38 H          22.4453   69.9145   -2.1069 H       1  UNL1        0.2105
     39 H          20.6847   70.1883   -1.4675 H       1  UNL1        0.2105
     40 H          24.5179   71.9286   -3.8549 H       1  UNL1        0.2106
     41 O          18.1878   73.4163   -1.2131 O.3     1  UNL1       -0.3794
     42 C          19.4944   73.8266   -0.8543 C.3     1  UNL1        0.1693
     43 H          17.5664   73.6681   -0.5115 H       1  UNL1        0.2105
@<TRIPOS>UNITY_ATOM_ATTR
2 1
charge -1
26 1
charge -1
@<TRIPOS>BOND
     1    25    28    1
     2    25    24    1
     3    25    26    1
     4    25    27    2
     5     1     4    1
     6     1    24    1
     7     1     2    1
     8     1     3    2
     9     6    11    1
    10     6    12    1
    11    29    36    1
    12    29    37    1
    13     7     9    1
    14     7    13    1
    15     8    10    1
    16     8    14    1
    17    28    37    1
    18     4     5    1
    19    30    33    1
    20    30    38    1
    21    31    34    1
    22    31    39    1
    23    32    35    1
    24    32    40    1
    25    41    42    1
    26    41    43    1
    27    15    19    2
    28    16    22    2
    29    17    12    1
    30    17    19   ar
    31    17    20   ar
    32    18    19   ar
    33    18    22   ar
    34    18    23    1
    35     9    10    1
    36     9    11    1
    37    10    12    1
    38    11     5    1
    39    33    34    1
    40    33    35    1
    41    34    36    1
    42    35    37    1
    43    36    42    1
    44    20    21   ar
    45    21    22   ar
@<TRIPOS>MOLECULE
*****
 43 45 0 0 0
SMALL
GASTEIGER

@<TRIPOS>ATOM
      1 P          22.6248   70.3779   -0.0449 P.3     1  UNL1        0.2189
      2 O          21.6626   69.3873    0.7979 O.co2   1  UNL1       -0.4371
      3 O          24.0040   69.8491   -0.3085 O.2     1  UNL1       -0.5170
      4 O          22.5514   71.7750    0.7680 O.3     1  UNL1       -0.3112
      5 C          21.4911   71.9670    1.6881 C.3     1  UNL1        0.1811
      6 O          23.3504   72.8382    2.9362 O.3     1  UNL1       -0.3308
      7 O          21.5287   72.8000    5.3176 O.3     1  UNL1       -0.3794
      8 O          21.4914   75.4259    4.5828 O.3     1  UNL1       -0.3779
      9 C          21.2257   73.0922    3.9545 C.3     1  UNL1        0.1713
     10 C          21.7502   74.4631    3.5814 C.3     1  UNL1        0.1895
     11 C          22.0736   72.1781    3.0789 C.3     1  UNL1        0.1764
     12 C          23.2343   74.1937    3.3991 C.3     1  UNL1        0.2383
     13 H          20.9989   73.3715    5.8961 H       1  UNL1        0.2105
     14 H          20.5342   75.5622    4.6607 H       1  UNL1        0.2106
     15 O          21.8552   75.3619    1.2285 O.2     1  UNL1       -0.2464
     16 O          25.6424   77.5363   -0.2447 O.2     1  UNL1       -0.2670
     17 N          23.8353   75.0694    2.4331 N.ar    1  UNL1       -0.2551
     18 N          23.7420   76.4437    0.4968 N.ar    1  UNL1       -0.2743
     19 C          23.0548   75.6018    1.3805 C.ar    1  UNL1        0.3323
     20 C          25.1840   75.3923    2.5350 C.ar    1  UNL1        0.0869
     21 C          25.8247   76.1957    1.6833 C.ar    1  UNL1        0.0795
     22 C          25.0817   76.7937    0.5554 C.ar    1  UNL1        0.2626
     23 H          23.2186   76.8261   -0.2445 H       1  UNL1        0.1734
     24 O          21.7565   70.6846   -1.3734 O.3     1  UNL1       -0.2703
     25 P          22.1366   71.4757   -2.7308 P.3     1  UNL1        0.2208
     26 O          23.4079   70.6508   -3.2974 O.co2   1  UNL1       -0.4371
     27 O          22.3868   72.9434   -2.5381 O.2     1  UNL1       -0.5170
     28 O          20.9375   71.1303   -3.7544 O.3     1  UNL1       -0.2858
     29 O          19.3673   71.9322   -5.3381 O.3     1  UNL1       -0.3258
     30 O          16.8102   71.2234   -2.1742 O.3     1  UNL1       -0.3794
     31 O          16.7614   69.4789   -4.4551 O.3     1  UNL1       -0.3794
     32 O          19.4511   72.3023   -1.6827 O.3     1  UNL1       -0.3775
     33 C          17.9414   70.9804   -3.0150 C.3     1  UNL1        0.1715
     34 C          17.4369   70.7334   -4.4381 C.3     1  UNL1        0.1694
     35 C          18.8636   72.1976   -2.9751 C.3     1  UNL1        0.1967
     36 C          18.5959   70.7299   -5.4439 C.3     1  UNL1        0.1761
     37 C          19.9517   72.1171   -4.0473 C.3     1  UNL1        0.2704
     38 H          16.2209   70.4541   -2.1946 H       1  UNL1        0.2105
     39 H          16.0322   69.4942   -3.8153 H       1  UNL1        0.2105
     40 H          18.7519   72.3528   -1.0130 H       1  UNL1        0.2106
     41 O          18.2830   71.9052   -7.5005 O.3     1  UNL1       -0.3794
     42 C          18.1014   70.6427   -6.8861 C.3     1  UNL1        0.1693
     43 H          17.9729   71.8646   -8.4192 H       1  UNL1        0.2105
@<TRIPOS>UNITY_ATOM_ATTR
2 1
charge -1
26 1
charge -1
@<TRIPOS>BOND
     1    25    28    1
     2    25    24    1
     3    25    26    1
     4    25    27    2
     5     1     4    1
     6     1    24    1
     7     1     2    1
     8     1     3    2
     9     6    11    1
    10     6    12    1
    11    29    36    1
    12    29    37    1
    13     7     9    1
    14     7    13    1
    15     8    10    1
    16     8    14    1
    17    28    37    1
    18     4     5    1
    19    30    33    1
    20    30    38    1
    21    31    34    1
    22    31    39    1
    23    32    35    1
    24    32    40    1
    25    41    42    1
    26    41    43    1
    27    15    19    2
    28    16    22    2
    29    17    12    1
    30    17    19   ar
    31    17    20   ar
    32    18    19   ar
    33    18    22   ar
    34    18    23    1
    35     9    10    1
    36     9    11    1
    37    10    12    1
    38    11     5    1
    39    33    34    1
    40    33    35    1
    41    34    36    1
    42    35    37    1
    43    36    42    1
    44    20    21   ar
    45    21    22   ar
@<TRIPOS>MOLECULE
*****
 43 45 0 0 0
SMALL
GASTEIGER

@<TRIPOS>ATOM
      1 P          22.4554   71.9752   -2.9928 P.3     1  UNL1        0.2189
      2 O          23.1594   73.4257   -2.8588 O.co2   1  UNL1       -0.4371
      3 O          23.3763   70.8576   -3.3855 O.2     1  UNL1       -0.5170
      4 O          21.2073   72.2397   -3.9878 O.3     1  UNL1       -0.3112
      5 C          20.4712   71.1249   -4.4602 C.3     1  UNL1        0.1811
      6 O          18.2561   71.7446   -3.7653 O.3     1  UNL1       -0.3308
      7 O          18.1341   69.0707   -2.4140 O.3     1  UNL1       -0.3794
      8 O          16.7105   68.6465   -4.7010 O.3     1  UNL1       -0.3779
      9 C          18.7558   69.4312   -3.6464 C.3     1  UNL1        0.1713
     10 C          17.7096   69.6456   -4.7202 C.3     1  UNL1        0.1895
     11 C          19.3386   70.8299   -3.4864 C.3     1  UNL1        0.1764
     12 C          17.1691   71.0199   -4.3636 C.3     1  UNL1        0.2383
     13 H          17.7547   68.1807   -2.4917 H       1  UNL1        0.2105
     14 H          17.1038   67.7912   -4.9343 H       1  UNL1        0.2106
     15 O          15.3842   73.2067   -4.2637 O.2     1  UNL1       -0.2464
     16 O          15.4573   73.7112   -8.8443 O.2     1  UNL1       -0.2670
     17 N          16.7052   71.7416   -5.5149 N.ar    1  UNL1       -0.2551
     18 N          15.4222   73.4562   -6.5446 N.ar    1  UNL1       -0.2743
     19 C          15.8089   72.8240   -5.3559 C.ar    1  UNL1        0.3323
     20 C          17.1391   71.3745   -6.7841 C.ar    1  UNL1        0.0869
     21 C          16.7599   71.9868   -7.9077 C.ar    1  UNL1        0.0795
     22 C          15.8247   73.1275   -7.8293 C.ar    1  UNL1        0.2626
     23 H          14.7977   74.2128   -6.4584 H       1  UNL1        0.1734
     24 O          21.7403   71.7842   -1.5557 O.3     1  UNL1       -0.2703
     25 P          22.2109   70.9811   -0.2342 P.3     1  UNL1        0.2208
     26 O          23.6534   70.3831   -0.6575 O.co2   1  UNL1       -0.4371
     27 O          21.2287   69.9502    0.2418 O.2     1  UNL1       -0.5170
     28 O          22.5479   72.1326    0.8453 O.3     1  UNL1       -0.2858
     29 O          21.2949   72.9549    2.6812 O.3     1  UNL1       -0.3258
     30 O          22.9605   76.5014    1.3779 O.3     1  UNL1       -0.3794
     31 O          23.9062   75.2997    3.8088 O.3     1  UNL1       -0.3794
     32 O          22.0838   74.5247   -0.5466 O.3     1  UNL1       -0.3775
     33 C          22.9268   75.0952    1.6363 C.3     1  UNL1        0.1715
     34 C          22.7184   74.8884    3.1378 C.3     1  UNL1        0.1694
     35 C          21.7811   74.4692    0.8433 C.3     1  UNL1        0.1967
     36 C          22.4056   73.4202    3.4567 C.3     1  UNL1        0.1761
     37 C          21.5209   73.0240    1.2719 C.3     1  UNL1        0.2704
     38 H          23.6862   76.9048    1.8781 H       1  UNL1        0.2105
     39 H          24.0928   76.2283    3.5987 H       1  UNL1        0.2105
     40 H          22.2461   75.4448   -0.8056 H       1  UNL1        0.2106
     41 O          22.1738   71.8453    5.2386 O.3     1  UNL1       -0.3794
     42 C          22.0394   73.2195    4.9256 C.3     1  UNL1        0.1693
     43 H          21.9442   71.7026    6.1706 H       1  UNL1        0.2105
@<TRIPOS>UNITY_ATOM_ATTR
2 1
charge -1
26 1
charge -1
@<TRIPOS>BOND
     1    25    28    1
     2    25    24    1
     3    25    26    1
     4    25    27    2
     5     1     4    1
     6     1    24    1
     7     1     2    1
     8     1     3    2
     9     6    11    1
    10     6    12    1
    11    29    36    1
    12    29    37    1
    13     7     9    1
    14     7    13    1
    15     8    10    1
    16     8    14    1
    17    28    37    1
    18     4     5    1
    19    30    33    1
    20    30    38    1
    21    31    34    1
    22    31    39    1
    23    32    35    1
    24    32    40    1
    25    41    42    1
    26    41    43    1
    27    15    19    2
    28    16    22    2
    29    17    12    1
    30    17    19   ar
    31    17    20   ar
    32    18    19   ar
    33    18    22   ar
    34    18    23    1
    35     9    10    1
    36     9    11    1
    37    10    12    1
    38    11     5    1
    39    33    34    1
    40    33    35    1
    41    34    36    1
    42    35    37    1
    43    36    42    1
    44    20    21   ar
    45    21    22   ar
