@<TRIPOS>MOLECULE
*****
 43 45 0 0 0
SMALL
GASTEIGER

@<TRIPOS>ATOM
      1 P          22.8588   71.3875   -2.2874 P.3     1  UNL1        0.2189
      2 O          22.4123   72.9244   -2.5241 O.co2   1  UNL1       -0.4371
      3 O          24.1549   70.9972   -2.9349 O.2     1  UNL1       -0.5170
      4 O          21.5619   70.5322   -2.7397 O.3     1  UNL1       -0.3112
      5 C          20.9237   70.8662   -3.9599 C.3     1  UNL1        0.1811
      6 O          18.8917   71.7457   -4.8933 O.3     1  UNL1       -0.3308
      7 O          17.4947   70.4876   -2.5574 O.3     1  UNL1       -0.3794
      8 O          17.0088   68.7106   -4.5681 O.3     1  UNL1       -0.3779
      9 C          18.6194   70.0153   -3.2972 C.3     1  UNL1        0.1713
     10 C          18.1789   69.4985   -4.6509 C.3     1  UNL1        0.1895
     11 C          19.4700   71.2205   -3.6783 C.3     1  UNL1        0.1764
     12 C          17.9620   70.7877   -5.4250 C.3     1  UNL1        0.2383
     13 H          16.9366   69.7355   -2.3026 H       1  UNL1        0.2105
     14 H          17.1980   67.9022   -4.0667 H       1  UNL1        0.2106
     15 O          15.9406   70.4765   -7.3730 O.2     1  UNL1       -0.2464
     16 O          19.0214   70.1904  -10.7888 O.2     1  UNL1       -0.2670
     17 N          18.2076   70.6303   -6.8308 N.ar    1  UNL1       -0.2551
     18 N          17.4762   70.3345   -9.0723 N.ar    1  UNL1       -0.2743
     19 C          17.1220   70.4802   -7.7249 C.ar    1  UNL1        0.3323
     20 C          19.5131   70.6261   -7.3101 C.ar    1  UNL1        0.0869
     21 C          19.8341   70.4848   -8.5978 C.ar    1  UNL1        0.0795
     22 C          18.7587   70.3226   -9.5975 C.ar    1  UNL1        0.2626
     23 H          16.7364   70.2280   -9.7135 H       1  UNL1        0.1734
     24 O          22.8425   71.2481   -0.6771 O.3     1  UNL1       -0.2703
     25 P          21.6360   71.3937    0.3888 P.3     1  UNL1        0.2208
     26 O          21.5906   69.9405    1.0986 O.co2   1  UNL1       -0.4371
     27 O          20.3318   71.8296   -0.2137 O.2     1  UNL1       -0.5170
     28 O          22.2122   72.3845    1.5252 O.3     1  UNL1       -0.2858
     29 O          23.9722   71.4474    2.8061 O.3     1  UNL1       -0.3258
     30 O          23.1377   74.7463    5.1453 O.3     1  UNL1       -0.3794
     31 O          25.5462   74.6892    3.5820 O.3     1  UNL1       -0.3794
     32 O          20.9797   73.2923    3.8772 O.3     1  UNL1       -0.3775
     33 C          23.2761   74.0174    3.9226 C.3     1  UNL1        0.1715
     34 C          24.7269   73.5454    3.8073 C.3     1  UNL1        0.1694
     35 C          22.3225   72.8242    3.9422 C.3     1  UNL1        0.1967
     36 C          24.8918   72.5362    2.6630 C.3     1  UNL1        0.1761
     37 C          22.6035   71.8577    2.7903 C.3     1  UNL1        0.2704
     38 H          23.7402   75.5056    5.1391 H       1  UNL1        0.2105
     39 H          25.4324   75.3187    4.3114 H       1  UNL1        0.2105
     40 H          20.8143   73.9029    4.6118 H       1  UNL1        0.2106
     41 O          26.2712   70.7861    1.8008 O.3     1  UNL1       -0.3794
     42 C          26.2946   71.9338    2.6294 C.3     1  UNL1        0.1693
     43 H          27.1575   70.3923    1.7698 H       1  UNL1        0.2105
@<TRIPOS>UNITY_ATOM_ATTR
2 1
charge -1
26 1
charge -1
@<TRIPOS>BOND
     1    25    28    1
     2    25    24    1
     3    25    26    1
     4    25    27    2
     5     1     4    1
     6     1    24    1
     7     1     2    1
     8     1     3    2
     9     6    11    1
    10     6    12    1
    11    29    36    1
    12    29    37    1
    13     7     9    1
    14     7    13    1
    15     8    10    1
    16     8    14    1
    17    28    37    1
    18     4     5    1
    19    30    33    1
    20    30    38    1
    21    31    34    1
    22    31    39    1
    23    32    35    1
    24    32    40    1
    25    41    42    1
    26    41    43    1
    27    15    19    2
    28    16    22    2
    29    17    12    1
    30    17    19   ar
    31    17    20   ar
    32    18    19   ar
    33    18    22   ar
    34    18    23    1
    35     9    10    1
    36     9    11    1
    37    10    12    1
    38    11     5    1
    39    33    34    1
    40    33    35    1
    41    34    36    1
    42    35    37    1
    43    36    42    1
    44    20    21   ar
    45    21    22   ar
@<TRIPOS>MOLECULE
*****
 43 45 0 0 0
SMALL
GASTEIGER

@<TRIPOS>ATOM
      1 P          22.1000   71.5225   -2.4661 P.3     1  UNL1        0.2189
      2 O          21.6415   72.8613   -3.2503 O.co2   1  UNL1       -0.4371
      3 O          23.3139   70.8430   -3.0283 O.2     1  UNL1       -0.5170
      4 O          20.7549   70.6250   -2.4106 O.3     1  UNL1       -0.3112
      5 C          20.0875   70.3313   -3.6256 C.3     1  UNL1        0.1811
      6 O          18.3509   71.5296   -4.7754 O.3     1  UNL1       -0.3308
      7 O          16.4522   70.2820   -2.8185 O.3     1  UNL1       -0.3794
      8 O          16.1117   68.7407   -5.0422 O.3     1  UNL1       -0.3779
      9 C          17.6243   69.7298   -3.4158 C.3     1  UNL1        0.1713
     10 C          17.3602   69.3785   -4.8651 C.3     1  UNL1        0.1895
     11 C          18.6562   70.8437   -3.5414 C.3     1  UNL1        0.1764
     12 C          17.4212   70.7405   -5.5356 C.3     1  UNL1        0.2383
     13 H          15.7788   69.5891   -2.7276 H       1  UNL1        0.2105
     14 H          16.1230   67.8787   -4.5978 H       1  UNL1        0.2106
     15 O          15.7504   70.2254   -7.7539 O.2     1  UNL1       -0.2464
     16 O          19.2846   70.4606  -10.7027 O.2     1  UNL1       -0.2670
     17 N          17.8782   70.6620   -6.8944 N.ar    1  UNL1       -0.2551
     18 N          17.5115   70.3431   -9.2203 N.ar    1  UNL1       -0.2743
     19 C          16.9576   70.3974   -7.9349 C.ar    1  UNL1        0.3323
     20 C          19.2258   70.8467   -7.1841 C.ar    1  UNL1        0.0869
     21 C          19.7382   70.7905   -8.4151 C.ar    1  UNL1        0.0795
     22 C          18.8439   70.5186   -9.5589 C.ar    1  UNL1        0.2626
     23 H          16.8890   70.1596   -9.9611 H       1  UNL1        0.1734
     24 O          22.2601   72.0318   -0.9404 O.3     1  UNL1       -0.2703
     25 P          21.2619   71.9207    0.3261 P.3     1  UNL1        0.2208
     26 O          21.0875   70.3242    0.5222 O.co2   1  UNL1       -0.4371
     27 O          19.9710   72.6689    0.1597 O.2     1  UNL1       -0.5170
     28 O          22.1500   72.3918    1.5888 O.3     1  UNL1       -0.2858
     29 O          21.0994   74.2932    2.5361 O.3     1  UNL1       -0.3258
     30 O          24.4558   74.1299    4.9358 O.3     1  UNL1       -0.3794
     31 O          21.9019   73.3842    6.0173 O.3     1  UNL1       -0.3794
     32 O          24.6666   73.5167    2.1146 O.3     1  UNL1       -0.3775
     33 C          23.3862   73.5924    4.1533 C.3     1  UNL1        0.1715
     34 C          22.0633   74.0523    4.7691 C.3     1  UNL1        0.1694
     35 C          23.5153   74.0976    2.7175 C.3     1  UNL1        0.1967
     36 C          20.8821   73.7416    3.8400 C.3     1  UNL1        0.1761
     37 C          22.2671   73.7794    1.8924 C.3     1  UNL1        0.2704
     38 H          24.3800   73.8125    5.8485 H       1  UNL1        0.2105
     39 H          22.6545   73.5884    6.5944 H       1  UNL1        0.2105
     40 H          25.4500   73.7256    2.6462 H       1  UNL1        0.2106
     41 O          18.6879   73.2679    4.6587 O.3     1  UNL1       -0.3794
     42 C          19.5736   74.3316    4.3616 C.3     1  UNL1        0.1693
     43 H          17.8509   73.6285    4.9921 H       1  UNL1        0.2105
@<TRIPOS>UNITY_ATOM_ATTR
2 1
charge -1
26 1
charge -1
@<TRIPOS>BOND
     1    25    28    1
     2    25    24    1
     3    25    26    1
     4    25    27    2
     5     1     4    1
     6     1    24    1
     7     1     2    1
     8     1     3    2
     9     6    11    1
    10     6    12    1
    11    29    36    1
    12    29    37    1
    13     7     9    1
    14     7    13    1
    15     8    10    1
    16     8    14    1
    17    28    37    1
    18     4     5    1
    19    30    33    1
    20    30    38    1
    21    31    34    1
    22    31    39    1
    23    32    35    1
    24    32    40    1
    25    41    42    1
    26    41    43    1
    27    15    19    2
    28    16    22    2
    29    17    12    1
    30    17    19   ar
    31    17    20   ar
    32    18    19   ar
    33    18    22   ar
    34    18    23    1
    35     9    10    1
    36     9    11    1
    37    10    12    1
    38    11     5    1
    39    33    34    1
    40    33    35    1
    41    34    36    1
    42    35    37    1
    43    36    42    1
    44    20    21   ar
    45    21    22   ar
@<TRIPOS>MOLECULE
*****
 43 45 0 0 0
SMALL
GASTEIGER

@<TRIPOS>ATOM
      1 P          22.8245   71.6063   -2.7480 P.3     1  UNL1        0.2189
      2 O          22.5688   72.6979   -3.9143 O.co2   1  UNL1       -0.4371
      3 O          24.0834   70.8034   -2.8964 O.2     1  UNL1       -0.5170
      4 O          21.4493   70.7550   -2.7044 O.3     1  UNL1       -0.3112
      5 C          20.7335   70.5645   -3.9123 C.3     1  UNL1        0.1811
      6 O          18.7747   71.5369   -4.9080 O.3     1  UNL1       -0.3308
      7 O          17.2275   70.2141   -2.7064 O.3     1  UNL1       -0.3794
      8 O          16.8057   68.5406   -4.8178 O.3     1  UNL1       -0.3779
      9 C          18.3779   69.7457   -3.4081 C.3     1  UNL1        0.1713
     10 C          17.9969   69.3006   -4.8047 C.3     1  UNL1        0.1895
     11 C          19.2758   70.9439   -3.6900 C.3     1  UNL1        0.1764
     12 C          17.8517   70.6278   -5.5297 C.3     1  UNL1        0.2383
     13 H          16.6391   69.4664   -2.5149 H       1  UNL1        0.2105
     14 H          16.9491   67.7063   -4.3445 H       1  UNL1        0.2106
     15 O          15.9441   70.2050   -7.5693 O.2     1  UNL1       -0.2464
     16 O          19.1761   70.2527  -10.8546 O.2     1  UNL1       -0.2670
     17 N          18.1669   70.5261   -6.9267 N.ar    1  UNL1       -0.2551
     18 N          17.5549   70.2293   -9.2035 N.ar    1  UNL1       -0.2743
     19 C          17.1348   70.3122   -7.8698 C.ar    1  UNL1        0.3323
     20 C          19.4871   70.6385   -7.3492 C.ar    1  UNL1        0.0869
     21 C          19.8712   70.5558   -8.6247 C.ar    1  UNL1        0.0795
     22 C          18.8546   70.3333   -9.6731 C.ar    1  UNL1        0.2626
     23 H          16.8532   70.0802   -9.8781 H       1  UNL1        0.1734
     24 O          22.7466   72.4918   -1.3979 O.3     1  UNL1       -0.2703
     25 P          21.4779   73.0318   -0.5543 P.3     1  UNL1        0.2208
     26 O          20.3554   73.2828   -1.6921 O.co2   1  UNL1       -0.4371
     27 O          21.7723   74.2305    0.3003 O.2     1  UNL1       -0.5170
     28 O          20.9507   71.7424    0.2609 O.3     1  UNL1       -0.2858
     29 O          22.6814   70.9169    1.6537 O.3     1  UNL1       -0.3258
     30 O          22.5570   74.8191    2.9984 O.3     1  UNL1       -0.3794
     31 O          24.7645   73.9461    1.3820 O.3     1  UNL1       -0.3794
     32 O          20.1001   73.4457    2.3225 O.3     1  UNL1       -0.3775
     33 C          22.4683   73.7717    2.0286 C.3     1  UNL1        0.1715
     34 C          23.8196   73.0565    1.9703 C.3     1  UNL1        0.1694
     35 C          21.3636   72.8010    2.4419 C.3     1  UNL1        0.1967
     36 C          23.7256   71.7605    1.1539 C.3     1  UNL1        0.1761
     37 C          21.3892   71.5244    1.5994 C.3     1  UNL1        0.2704
     38 H          23.2563   75.4392    2.7417 H       1  UNL1        0.2105
     39 H          24.8139   74.7605    1.9068 H       1  UNL1        0.2105
     40 H          20.0965   74.2521    2.8606 H       1  UNL1        0.2106
     41 O          24.7482   69.7160    1.8492 O.3     1  UNL1       -0.3794
     42 C          25.0196   70.9517    1.2138 C.3     1  UNL1        0.1693
     43 H          25.5627   69.1904    1.8941 H       1  UNL1        0.2105
@<TRIPOS>UNITY_ATOM_ATTR
2 1
charge -1
26 1
charge -1
@<TRIPOS>BOND
     1    25    28    1
     2    25    24    1
     3    25    26    1
     4    25    27    2
     5     1     4    1
     6     1    24    1
     7     1     2    1
     8     1     3    2
     9     6    11    1
    10     6    12    1
    11    29    36    1
    12    29    37    1
    13     7     9    1
    14     7    13    1
    15     8    10    1
    16     8    14    1
    17    28    37    1
    18     4     5    1
    19    30    33    1
    20    30    38    1
    21    31    34    1
    22    31    39    1
    23    32    35    1
    24    32    40    1
    25    41    42    1
    26    41    43    1
    27    15    19    2
    28    16    22    2
    29    17    12    1
    30    17    19   ar
    31    17    20   ar
    32    18    19   ar
    33    18    22   ar
    34    18    23    1
    35     9    10    1
    36     9    11    1
    37    10    12    1
    38    11     5    1
    39    33    34    1
    40    33    35    1
    41    34    36    1
    42    35    37    1
    43    36    42    1
    44    20    21   ar
    45    21    22   ar
@<TRIPOS>MOLECULE
*****
 43 45 0 0 0
SMALL
GASTEIGER

@<TRIPOS>ATOM
      1 P          22.2769   71.5345   -2.8081 P.3     1  UNL1        0.2189
      2 O          22.2789   73.1463   -2.6689 O.co2   1  UNL1       -0.4371
      3 O          23.6191   70.9199   -3.0767 O.2     1  UNL1       -0.5170
      4 O          21.1355   71.2418   -3.9169 O.3     1  UNL1       -0.3112
      5 C          20.2267   70.1791   -3.6875 C.3     1  UNL1        0.1811
      6 O          18.5138   71.4622   -4.7798 O.3     1  UNL1       -0.3308
      7 O          16.6127   70.2666   -2.7931 O.3     1  UNL1       -0.3794
      8 O          16.1568   68.7703   -5.0269 O.3     1  UNL1       -0.3779
      9 C          17.7467   69.6753   -3.4255 C.3     1  UNL1        0.1713
     10 C          17.4341   69.3545   -4.8722 C.3     1  UNL1        0.1895
     11 C          18.8200   70.7480   -3.5623 C.3     1  UNL1        0.1764
     12 C          17.5349   70.7217   -5.5270 C.3     1  UNL1        0.2383
     13 H          15.9138   69.6004   -2.6945 H       1  UNL1        0.2105
     14 H          16.1433   67.9026   -4.5936 H       1  UNL1        0.2106
     15 O          15.7915   70.3104   -7.7109 O.2     1  UNL1       -0.2464
     16 O          19.2621   70.4353  -10.7408 O.2     1  UNL1       -0.2670
     17 N          17.9560   70.6429   -6.8974 N.ar    1  UNL1       -0.2551
     18 N          17.5210   70.3731   -9.2178 N.ar    1  UNL1       -0.2743
     19 C          17.0004   70.4330   -7.9188 C.ar    1  UNL1        0.3323
     20 C          19.3030   70.7737   -7.2170 C.ar    1  UNL1        0.0869
     21 C          19.7834   70.7129   -8.4607 C.ar    1  UNL1        0.0795
     22 C          18.8514   70.4960   -9.5861 C.ar    1  UNL1        0.2626
     23 H          16.8739   70.2272   -9.9456 H       1  UNL1        0.1734
     24 O          21.5792   71.0517   -1.4322 O.3     1  UNL1       -0.2703
     25 P          22.1001   71.1031    0.0971 P.3     1  UNL1        0.2208
     26 O          23.7030   71.2550   -0.0618 O.co2   1  UNL1       -0.4371
     27 O          21.6688   69.9335    0.9337 O.2     1  UNL1       -0.5170
     28 O          21.6074   72.5377    0.6485 O.3     1  UNL1       -0.2858
     29 O          21.3132   72.4589    2.9988 O.3     1  UNL1       -0.3258
     30 O          19.7459   76.2076    2.2631 O.3     1  UNL1       -0.3794
     31 O          22.3024   75.9671    3.5493 O.3     1  UNL1       -0.3794
     32 O          19.2538   74.0461    0.4016 O.3     1  UNL1       -0.3775
     33 C          20.6359   75.1058    2.0654 C.3     1  UNL1        0.1715
     34 C          21.4077   74.8734    3.3659 C.3     1  UNL1        0.1694
     35 C          19.8224   73.8673    1.6944 C.3     1  UNL1        0.1967
     36 C          22.1835   73.5501    3.3208 C.3     1  UNL1        0.1761
     37 C          20.6774   72.5992    1.7268 C.3     1  UNL1        0.2704
     38 H          20.2562   76.9974    2.4985 H       1  UNL1        0.2105
     39 H          21.8000   76.7966    3.5755 H       1  UNL1        0.2105
     40 H          18.7147   74.8518    0.3942 H       1  UNL1        0.2106
     41 O          21.8088   73.0136    5.6188 O.3     1  UNL1       -0.3794
     42 C          22.8327   73.2217    4.6634 C.3     1  UNL1        0.1693
     43 H          22.2073   72.8034    6.4783 H       1  UNL1        0.2105
@<TRIPOS>UNITY_ATOM_ATTR
2 1
charge -1
26 1
charge -1
@<TRIPOS>BOND
     1    25    28    1
     2    25    24    1
     3    25    26    1
     4    25    27    2
     5     1     4    1
     6     1    24    1
     7     1     2    1
     8     1     3    2
     9     6    11    1
    10     6    12    1
    11    29    36    1
    12    29    37    1
    13     7     9    1
    14     7    13    1
    15     8    10    1
    16     8    14    1
    17    28    37    1
    18     4     5    1
    19    30    33    1
    20    30    38    1
    21    31    34    1
    22    31    39    1
    23    32    35    1
    24    32    40    1
    25    41    42    1
    26    41    43    1
    27    15    19    2
    28    16    22    2
    29    17    12    1
    30    17    19   ar
    31    17    20   ar
    32    18    19   ar
    33    18    22   ar
    34    18    23    1
    35     9    10    1
    36     9    11    1
    37    10    12    1
    38    11     5    1
    39    33    34    1
    40    33    35    1
    41    34    36    1
    42    35    37    1
    43    36    42    1
    44    20    21   ar
    45    21    22   ar
@<TRIPOS>MOLECULE
*****
 43 45 0 0 0
SMALL
GASTEIGER

@<TRIPOS>ATOM
      1 P          23.4837   73.5666   -4.1729 P.3     1  UNL1        0.2189
      2 O          22.7039   74.9617   -4.4238 O.co2   1  UNL1       -0.4371
      3 O          24.9753   73.6854   -4.0611 O.2     1  UNL1       -0.5170
      4 O          22.9423   72.6013   -5.3532 O.3     1  UNL1       -0.3112
      5 C          21.5672   72.2597   -5.3699 C.3     1  UNL1        0.1811
      6 O          20.4769   70.3297   -6.2974 O.3     1  UNL1       -0.3308
      7 O          20.6477   71.7355   -8.9404 O.3     1  UNL1       -0.3794
      8 O          18.0585   72.1694   -8.2026 O.3     1  UNL1       -0.3779
      9 C          20.4216   72.2806   -7.6415 C.3     1  UNL1        0.1713
     10 C          19.0129   71.9714   -7.1795 C.3     1  UNL1        0.1895
     11 C          21.2631   71.4897   -6.6477 C.3     1  UNL1        0.1764
     12 C          19.1303   70.5150   -6.7634 C.3     1  UNL1        0.2383
     13 H          20.1210   72.2248   -9.5924 H       1  UNL1        0.2105
     14 H          18.0210   73.1111   -8.4321 H       1  UNL1        0.2106
     15 O          16.4250   69.8046   -7.1562 O.2     1  UNL1       -0.2464
     16 O          15.7319   69.2200   -2.6375 O.2     1  UNL1       -0.2670
     17 N          18.2201   70.1720   -5.7073 N.ar    1  UNL1       -0.2551
     18 N          16.0821   69.5139   -4.9059 N.ar    1  UNL1       -0.2743
     19 C          16.8816   69.8312   -6.0115 C.ar    1  UNL1        0.3323
     20 C          18.6574   70.1755   -4.3872 C.ar    1  UNL1        0.0869
     21 C          17.8821   69.8718   -3.3442 C.ar    1  UNL1        0.0795
     22 C          16.4702   69.5044   -3.5755 C.ar    1  UNL1        0.2626
     23 H          15.1457   69.2737   -5.0936 H       1  UNL1        0.1734
     24 O          22.7554   72.9747   -2.8568 O.3     1  UNL1       -0.2703
     25 P          22.8888   71.5399   -2.1244 P.3     1  UNL1        0.2208
     26 O          24.2102   70.8985   -2.8026 O.co2   1  UNL1       -0.4371
     27 O          21.6617   70.6809   -2.2258 O.2     1  UNL1       -0.5170
     28 O          23.3358   71.8920   -0.6141 O.3     1  UNL1       -0.2858
     29 O          24.6103   70.8990    1.1197 O.3     1  UNL1       -0.3258
     30 O          21.2131   71.8559    3.2632 O.3     1  UNL1       -0.3794
     31 O          23.6222   73.3638    3.6766 O.3     1  UNL1       -0.3794
     32 O          20.9810   70.8956    0.5423 O.3     1  UNL1       -0.3775
     33 C          22.2176   72.0417    2.2623 C.3     1  UNL1        0.1715
     34 C          23.5770   72.1340    2.9584 C.3     1  UNL1        0.1694
     35 C          22.1866   70.8573    1.2981 C.3     1  UNL1        0.1967
     36 C          24.7253   72.0658    1.9426 C.3     1  UNL1        0.1761
     37 C          23.3982   70.8574    0.3641 C.3     1  UNL1        0.2704
     38 H          21.2272   72.6048    3.8784 H       1  UNL1        0.2105
     39 H          22.8916   73.3943    4.3142 H       1  UNL1        0.2105
     40 H          20.2215   70.8948    1.1449 H       1  UNL1        0.2106
     41 O          26.7046   70.7704    2.2786 O.3     1  UNL1       -0.3794
     42 C          26.0895   71.9974    2.6254 C.3     1  UNL1        0.1693
     43 H          27.5741   70.7131    2.7059 H       1  UNL1        0.2105
@<TRIPOS>UNITY_ATOM_ATTR
2 1
charge -1
26 1
charge -1
@<TRIPOS>BOND
     1    25    28    1
     2    25    24    1
     3    25    26    1
     4    25    27    2
     5     1     4    1
     6     1    24    1
     7     1     2    1
     8     1     3    2
     9     6    11    1
    10     6    12    1
    11    29    36    1
    12    29    37    1
    13     7     9    1
    14     7    13    1
    15     8    10    1
    16     8    14    1
    17    28    37    1
    18     4     5    1
    19    30    33    1
    20    30    38    1
    21    31    34    1
    22    31    39    1
    23    32    35    1
    24    32    40    1
    25    41    42    1
    26    41    43    1
    27    15    19    2
    28    16    22    2
    29    17    12    1
    30    17    19   ar
    31    17    20   ar
    32    18    19   ar
    33    18    22   ar
    34    18    23    1
    35     9    10    1
    36     9    11    1
    37    10    12    1
    38    11     5    1
    39    33    34    1
    40    33    35    1
    41    34    36    1
    42    35    37    1
    43    36    42    1
    44    20    21   ar
    45    21    22   ar
@<TRIPOS>MOLECULE
*****
 43 45 0 0 0
SMALL
GASTEIGER

@<TRIPOS>ATOM
      1 P          22.8422   71.4549   -2.7523 P.3     1  UNL1        0.2189
      2 O          22.8411   73.0533   -2.5025 O.co2   1  UNL1       -0.4371
      3 O          24.1926   70.8550   -3.0129 O.2     1  UNL1       -0.5170
      4 O          21.7423   71.2435   -3.9200 O.3     1  UNL1       -0.3112
      5 C          21.6115   72.2440   -4.9148 C.3     1  UNL1        0.1811
      6 O          20.5100   70.4191   -6.0240 O.3     1  UNL1       -0.3308
      7 O          20.8327   72.0043   -8.5486 O.3     1  UNL1       -0.3794
      8 O          18.2269   72.4626   -7.8880 O.3     1  UNL1       -0.3779
      9 C          20.5658   72.4618   -7.2240 C.3     1  UNL1        0.1713
     10 C          19.1306   72.1632   -6.8437 C.3     1  UNL1        0.1895
     11 C          21.3419   71.5768   -6.2566 C.3     1  UNL1        0.1764
     12 C          19.1903   70.6779   -6.5300 C.3     1  UNL1        0.2383
     13 H          20.3481   72.5546   -9.1844 H       1  UNL1        0.2105
     14 H          18.2250   73.4189   -8.0499 H       1  UNL1        0.2106
     15 O          16.5339   69.9087   -7.1046 O.2     1  UNL1       -0.2464
     16 O          15.5807   69.2040   -2.6509 O.2     1  UNL1       -0.2670
     17 N          18.2264   70.2882   -5.5398 N.ar    1  UNL1       -0.2551
     18 N          16.0615   69.5583   -4.8865 N.ar    1  UNL1       -0.2743
     19 C          16.9186   69.9207   -5.9335 C.ar    1  UNL1        0.3323
     20 C          18.5816   70.2726   -4.1954 C.ar    1  UNL1        0.0869
     21 C          17.7521   69.9257   -3.2091 C.ar    1  UNL1        0.0795
     22 C          16.3673   69.5282   -3.5351 C.ar    1  UNL1        0.2626
     23 H          15.1451   69.2988   -5.1369 H       1  UNL1        0.1734
     24 O          22.0932   70.8814   -1.4396 O.3     1  UNL1       -0.2703
     25 P          22.3870   71.1072    0.1338 P.3     1  UNL1        0.2208
     26 O          23.9994   71.2244    0.1972 O.co2   1  UNL1       -0.4371
     27 O          21.8076   70.0480    1.0262 O.2     1  UNL1       -0.5170
     28 O          21.8574   72.6012    0.4380 O.3     1  UNL1       -0.2858
     29 O          20.2185   72.9794    2.1075 O.3     1  UNL1       -0.3258
     30 O          19.6652   76.3950   -0.1460 O.3     1  UNL1       -0.3794
     31 O          20.9306   76.5823    2.4253 O.3     1  UNL1       -0.3794
     32 O          20.2258   73.8755   -1.4565 O.3     1  UNL1       -0.3775
     33 C          20.4178   75.3350    0.4499 C.3     1  UNL1        0.1715
     34 C          20.2461   75.4194    1.9679 C.3     1  UNL1        0.1694
     35 C          19.8997   73.9978   -0.0763 C.3     1  UNL1        0.1967
     36 C          20.8009   74.1664    2.6587 C.3     1  UNL1        0.1761
     37 C          20.4757   72.8195    0.7111 C.3     1  UNL1        0.2704
     38 H          19.9895   77.2469    0.1835 H       1  UNL1        0.2105
     39 H          20.5711   77.3663    1.9810 H       1  UNL1        0.2105
     40 H          19.8553   74.6272   -1.9440 H       1  UNL1        0.2106
     41 O          19.1942   73.6432    4.3480 O.3     1  UNL1       -0.3794
     42 C          20.4991   74.1576    4.1557 C.3     1  UNL1        0.1693
     43 H          18.9885   73.6314    5.2963 H       1  UNL1        0.2105
@<TRIPOS>UNITY_ATOM_ATTR
2 1
charge -1
26 1
charge -1
@<TRIPOS>BOND
     1    25    28    1
     2    25    24    1
     3    25    26    1
     4    25    27    2
     5     1     4    1
     6     1    24    1
     7     1     2    1
     8     1     3    2
     9     6    11    1
    10     6    12    1
    11    29    36    1
    12    29    37    1
    13     7     9    1
    14     7    13    1
    15     8    10    1
    16     8    14    1
    17    28    37    1
    18     4     5    1
    19    30    33    1
    20    30    38    1
    21    31    34    1
    22    31    39    1
    23    32    35    1
    24    32    40    1
    25    41    42    1
    26    41    43    1
    27    15    19    2
    28    16    22    2
    29    17    12    1
    30    17    19   ar
    31    17    20   ar
    32    18    19   ar
    33    18    22   ar
    34    18    23    1
    35     9    10    1
    36     9    11    1
    37    10    12    1
    38    11     5    1
    39    33    34    1
    40    33    35    1
    41    34    36    1
    42    35    37    1
    43    36    42    1
    44    20    21   ar
    45    21    22   ar
@<TRIPOS>MOLECULE
*****
 43 45 0 0 0
SMALL
GASTEIGER

@<TRIPOS>ATOM
      1 P          20.8409   72.8391   -3.8049 P.3     1  UNL1        0.2189
      2 O          21.3070   74.0637   -2.8559 O.co2   1  UNL1       -0.4371
      3 O          20.6028   73.2050   -5.2405 O.2     1  UNL1       -0.5170
      4 O          19.5759   72.2015   -3.0232 O.3     1  UNL1       -0.3112
      5 C          19.0509   70.9673   -3.4800 C.3     1  UNL1        0.1811
      6 O          17.3090   71.6556   -4.9853 O.3     1  UNL1       -0.3308
      7 O          15.4505   70.0373   -3.2771 O.3     1  UNL1       -0.3794
      8 O          15.8901   68.3885   -5.4042 O.3     1  UNL1       -0.3779
      9 C          16.8077   69.7764   -3.6314 C.3     1  UNL1        0.1713
     10 C          16.8968   69.3234   -5.0737 C.3     1  UNL1        0.1895
     11 C          17.5468   71.1082   -3.6699 C.3     1  UNL1        0.1764
     12 C          16.7462   70.6349   -5.8257 C.3     1  UNL1        0.2383
     13 H          14.9584   69.2014   -3.2457 H       1  UNL1        0.2105
     14 H          16.0295   67.5715   -4.9004 H       1  UNL1        0.2106
     15 O          15.4808   70.6033   -8.3507 O.2     1  UNL1       -0.2464
     16 O          19.5161   70.6124  -10.5772 O.2     1  UNL1       -0.2670
     17 N          17.4419   70.6291   -7.0817 N.ar    1  UNL1       -0.2551
     18 N          17.4911   70.6080   -9.4573 N.ar    1  UNL1       -0.2743
     19 C          16.7122   70.6120   -8.2931 C.ar    1  UNL1        0.3323
     20 C          18.8323   70.6406   -7.1038 C.ar    1  UNL1        0.0869
     21 C          19.5602   70.6353   -8.2224 C.ar    1  UNL1        0.0795
     22 C          18.8750   70.6177   -9.5309 C.ar    1  UNL1        0.2626
     23 H          17.0043   70.5958  -10.3132 H       1  UNL1        0.1734
     24 O          22.0024   71.7386   -3.5749 O.3     1  UNL1       -0.2703
     25 P          23.4261   71.8405   -2.8162 P.3     1  UNL1        0.2208
     26 O          24.0265   73.2481   -3.3413 O.co2   1  UNL1       -0.4371
     27 O          24.3278   70.6611   -3.0389 O.2     1  UNL1       -0.5170
     28 O          23.0469   72.1102   -1.2707 O.3     1  UNL1       -0.2858
     29 O          24.2008   71.0424    0.5027 O.3     1  UNL1       -0.3258
     30 O          20.6413   71.8601    2.4293 O.3     1  UNL1       -0.3794
     31 O          22.9936   73.3664    3.0970 O.3     1  UNL1       -0.3794
     32 O          20.6251   71.0361   -0.3456 O.3     1  UNL1       -0.3775
     33 C          21.7154   72.1049    1.5173 C.3     1  UNL1        0.1715
     34 C          23.0176   72.1740    2.3174 C.3     1  UNL1        0.1694
     35 C          21.7713   70.9704    0.4960 C.3     1  UNL1        0.1967
     36 C          24.2394   72.1672    1.3887 C.3     1  UNL1        0.1761
     37 C          23.0491   71.0282   -0.3431 C.3     1  UNL1        0.2704
     38 H          20.6000   72.5772    3.0802 H       1  UNL1        0.2105
     39 H          22.2172   73.3583    3.6786 H       1  UNL1        0.2105
     40 H          19.8228   70.9982    0.1974 H       1  UNL1        0.2106
     41 O          25.9104   70.7124    2.2831 O.3     1  UNL1       -0.3794
     42 C          25.5496   72.0766    2.1680 C.3     1  UNL1        0.1693
     43 H          26.7428   70.6394    2.7767 H       1  UNL1        0.2105
@<TRIPOS>UNITY_ATOM_ATTR
2 1
charge -1
26 1
charge -1
@<TRIPOS>BOND
     1    25    28    1
     2    25    24    1
     3    25    26    1
     4    25    27    2
     5     1     4    1
     6     1    24    1
     7     1     2    1
     8     1     3    2
     9     6    11    1
    10     6    12    1
    11    29    36    1
    12    29    37    1
    13     7     9    1
    14     7    13    1
    15     8    10    1
    16     8    14    1
    17    28    37    1
    18     4     5    1
    19    30    33    1
    20    30    38    1
    21    31    34    1
    22    31    39    1
    23    32    35    1
    24    32    40    1
    25    41    42    1
    26    41    43    1
    27    15    19    2
    28    16    22    2
    29    17    12    1
    30    17    19   ar
    31    17    20   ar
    32    18    19   ar
    33    18    22   ar
    34    18    23    1
    35     9    10    1
    36     9    11    1
    37    10    12    1
    38    11     5    1
    39    33    34    1
    40    33    35    1
    41    34    36    1
    42    35    37    1
    43    36    42    1
    44    20    21   ar
    45    21    22   ar
@<TRIPOS>MOLECULE
*****
 43 45 0 0 0
SMALL
GASTEIGER

@<TRIPOS>ATOM
      1 P          22.8025   71.7228   -1.3238 P.3     1  UNL1        0.2189
      2 O          23.9740   70.8752   -2.0494 O.co2   1  UNL1       -0.4371
      3 O          21.4977   70.9979   -1.1706 O.2     1  UNL1       -0.5170
      4 O          22.7445   73.1039   -2.1647 O.3     1  UNL1       -0.3112
      5 C          21.7692   73.2342   -3.1843 C.3     1  UNL1        0.1811
      6 O          21.7835   71.4471   -4.7905 O.3     1  UNL1       -0.3308
      7 O          22.9948   73.4200   -6.6960 O.3     1  UNL1       -0.3794
      8 O          20.3815   73.3699   -7.4738 O.3     1  UNL1       -0.3779
      9 C          22.0090   73.6294   -5.6862 C.3     1  UNL1        0.1713
     10 C          20.6762   73.0611   -6.1267 C.3     1  UNL1        0.1895
     11 C          22.3572   72.7402   -4.4990 C.3     1  UNL1        0.1764
     12 C          20.8775   71.5726   -5.8988 C.3     1  UNL1        0.2383
     13 H          22.7938   73.9777   -7.4645 H       1  UNL1        0.2105
     14 H          20.2623   74.3279   -7.5673 H       1  UNL1        0.2106
     15 O          18.9605   70.7538   -7.8047 O.2     1  UNL1       -0.2464
     16 O          16.2120   68.9898   -4.5528 O.2     1  UNL1       -0.2670
     17 N          19.6520   70.8969   -5.5780 N.ar    1  UNL1       -0.2551
     18 N          17.5936   69.8760   -6.1840 N.ar    1  UNL1       -0.2743
     19 C          18.7569   70.5298   -6.6097 C.ar    1  UNL1        0.3323
     20 C          19.3481   70.6047   -4.2528 C.ar    1  UNL1        0.0869
     21 C          18.2339   69.9817   -3.8632 C.ar    1  UNL1        0.0795
     22 C          17.2461   69.5643   -4.8791 C.ar    1  UNL1        0.2626
     23 H          16.9551   69.6111   -6.8854 H       1  UNL1        0.1734
     24 O          23.4891   72.1737    0.0684 O.3     1  UNL1       -0.2703
     25 P          23.5231   71.4562    1.5165 P.3     1  UNL1        0.2208
     26 O          24.5814   70.2503    1.3084 O.co2   1  UNL1       -0.4371
     27 O          22.1773   71.0194    2.0186 O.2     1  UNL1       -0.5170
     28 O          24.2858   72.5070    2.4752 O.3     1  UNL1       -0.2858
     29 O          23.2636   74.6315    2.2337 O.3     1  UNL1       -0.3258
     30 O          19.9588   72.4352    3.3763 O.3     1  UNL1       -0.3794
     31 O          20.2014   73.3204    0.6549 O.3     1  UNL1       -0.3794
     32 O          22.5352   71.9010    4.5831 O.3     1  UNL1       -0.3775
     33 C          21.2099   72.6617    2.7213 C.3     1  UNL1        0.1715
     34 C          21.0252   73.7988    1.7145 C.3     1  UNL1        0.1694
     35 C          22.2601   73.0339    3.7662 C.3     1  UNL1        0.1967
     36 C          22.3760   74.2783    1.1664 C.3     1  UNL1        0.1761
     37 C          23.5475   73.5440    3.1161 C.3     1  UNL1        0.2704
     38 H          19.2876   72.1979    2.7184 H       1  UNL1        0.2105
     39 H          19.3517   73.0203    1.0145 H       1  UNL1        0.2105
     40 H          21.7124   71.5879    4.9891 H       1  UNL1        0.2106
     41 O          22.4552   76.6646    1.0751 O.3     1  UNL1       -0.3794
     42 C          22.2281   75.5142    0.2817 C.3     1  UNL1        0.1693
     43 H          22.3646   77.4589    0.5252 H       1  UNL1        0.2105
@<TRIPOS>UNITY_ATOM_ATTR
2 1
charge -1
26 1
charge -1
@<TRIPOS>BOND
     1    25    28    1
     2    25    24    1
     3    25    26    1
     4    25    27    2
     5     1     4    1
     6     1    24    1
     7     1     2    1
     8     1     3    2
     9     6    11    1
    10     6    12    1
    11    29    36    1
    12    29    37    1
    13     7     9    1
    14     7    13    1
    15     8    10    1
    16     8    14    1
    17    28    37    1
    18     4     5    1
    19    30    33    1
    20    30    38    1
    21    31    34    1
    22    31    39    1
    23    32    35    1
    24    32    40    1
    25    41    42    1
    26    41    43    1
    27    15    19    2
    28    16    22    2
    29    17    12    1
    30    17    19   ar
    31    17    20   ar
    32    18    19   ar
    33    18    22   ar
    34    18    23    1
    35     9    10    1
    36     9    11    1
    37    10    12    1
    38    11     5    1
    39    33    34    1
    40    33    35    1
    41    34    36    1
    42    35    37    1
    43    36    42    1
    44    20    21   ar
    45    21    22   ar
@<TRIPOS>MOLECULE
*****
 43 45 0 0 0
SMALL
GASTEIGER

@<TRIPOS>ATOM
      1 P          21.0509   72.1134   -0.7808 P.3     1  UNL1        0.2189
      2 O          21.0694   70.6173   -0.1653 O.co2   1  UNL1       -0.4371
      3 O          19.6876   72.6460   -1.1111 O.2     1  UNL1       -0.5170
      4 O          22.0941   72.0385   -2.0153 O.3     1  UNL1       -0.3112
      5 C          21.8531   72.8464   -3.1541 C.3     1  UNL1        0.1811
      6 O          21.5546   70.8570   -4.4684 O.3     1  UNL1       -0.3308
      7 O          22.8875   72.3551   -6.6977 O.3     1  UNL1       -0.3794
      8 O          20.2474   72.5329   -7.3573 O.3     1  UNL1       -0.3779
      9 C          21.9949   72.8366   -5.6944 C.3     1  UNL1        0.1713
     10 C          20.5790   72.3886   -5.9912 C.3     1  UNL1        0.1895
     11 C          22.2990   72.0930   -4.3998 C.3     1  UNL1        0.1764
     12 C          20.6085   70.9361   -5.5470 C.3     1  UNL1        0.2383
     13 H          22.7126   72.8157   -7.5339 H       1  UNL1        0.2105
     14 H          20.2418   73.4742   -7.5911 H       1  UNL1        0.2106
     15 O          18.4435   70.2590   -7.2299 O.2     1  UNL1       -0.2464
     16 O          15.7489   69.2005   -3.6438 O.2     1  UNL1       -0.2670
     17 N          19.3296   70.4802   -5.0798 N.ar    1  UNL1       -0.2551
     18 N          17.1036   69.7323   -5.4430 N.ar    1  UNL1       -0.2743
     19 C          18.3093   70.1673   -6.0079 C.ar    1  UNL1        0.3323
     20 C          19.0976   70.3471   -3.7152 C.ar    1  UNL1        0.0869
     21 C          17.9418   69.9322   -3.1925 C.ar    1  UNL1        0.0795
     22 C          16.8240   69.5849   -4.0936 C.ar    1  UNL1        0.2626
     23 H          16.3782   69.5090   -6.0703 H       1  UNL1        0.1734
     24 O          21.8585   72.9716    0.3257 O.3     1  UNL1       -0.2703
     25 P          23.4411   73.0824    0.6356 P.3     1  UNL1        0.2208
     26 O          23.9222   74.2963   -0.3196 O.co2   1  UNL1       -0.4371
     27 O          24.1980   71.8011    0.4375 O.2     1  UNL1       -0.5170
     28 O          23.5234   73.6834    2.1313 O.3     1  UNL1       -0.2858
     29 O          25.0762   73.3734    3.8946 O.3     1  UNL1       -0.3258
     30 O          21.5792   73.3898    6.0903 O.3     1  UNL1       -0.3794
     31 O          23.3496   75.6470    6.2267 O.3     1  UNL1       -0.3794
     32 O          21.6508   72.1026    3.4985 O.3     1  UNL1       -0.3775
     33 C          22.4523   73.7820    5.0277 C.3     1  UNL1        0.1715
     34 C          23.7102   74.3980    5.6432 C.3     1  UNL1        0.1694
     35 C          22.8083   72.5522    4.1945 C.3     1  UNL1        0.1967
     36 C          24.8036   74.5984    4.5852 C.3     1  UNL1        0.1761
     37 C          23.9394   72.8468    3.2075 C.3     1  UNL1        0.2704
     38 H          21.3489   74.1662    6.6230 H       1  UNL1        0.2105
     39 H          22.6582   75.5065    6.8926 H       1  UNL1        0.2105
     40 H          20.9423   71.9192    4.1343 H       1  UNL1        0.2106
     41 O          26.0362   76.4570    5.4426 O.3     1  UNL1       -0.3794
     42 C          26.1198   75.0640    5.2039 C.3     1  UNL1        0.1693
     43 H          26.8669   76.7673    5.8367 H       1  UNL1        0.2105
@<TRIPOS>UNITY_ATOM_ATTR
2 1
charge -1
26 1
charge -1
@<TRIPOS>BOND
     1    25    28    1
     2    25    24    1
     3    25    26    1
     4    25    27    2
     5     1     4    1
     6     1    24    1
     7     1     2    1
     8     1     3    2
     9     6    11    1
    10     6    12    1
    11    29    36    1
    12    29    37    1
    13     7     9    1
    14     7    13    1
    15     8    10    1
    16     8    14    1
    17    28    37    1
    18     4     5    1
    19    30    33    1
    20    30    38    1
    21    31    34    1
    22    31    39    1
    23    32    35    1
    24    32    40    1
    25    41    42    1
    26    41    43    1
    27    15    19    2
    28    16    22    2
    29    17    12    1
    30    17    19   ar
    31    17    20   ar
    32    18    19   ar
    33    18    22   ar
    34    18    23    1
    35     9    10    1
    36     9    11    1
    37    10    12    1
    38    11     5    1
    39    33    34    1
    40    33    35    1
    41    34    36    1
    42    35    37    1
    43    36    42    1
    44    20    21   ar
    45    21    22   ar
@<TRIPOS>MOLECULE
*****
 43 45 0 0 0
SMALL
GASTEIGER

@<TRIPOS>ATOM
      1 P          22.8364   72.6618   -3.8237 P.3     1  UNL1        0.2189
      2 O          22.1753   71.1989   -3.6235 O.co2   1  UNL1       -0.4371
      3 O          24.2501   72.6549   -4.3267 O.2     1  UNL1       -0.5170
      4 O          22.6009   73.3927   -2.3996 O.3     1  UNL1       -0.3112
      5 C          21.6060   74.3978   -2.3118 C.3     1  UNL1        0.1811
      6 O          20.8815   72.6559   -0.8238 O.3     1  UNL1       -0.3308
      7 O          18.7421   74.5605    0.0631 O.3     1  UNL1       -0.3794
      8 O          20.5822   74.7590    2.0659 O.3     1  UNL1       -0.3779
      9 C          20.0911   74.8310   -0.3142 C.3     1  UNL1        0.1713
     10 C          21.0413   74.3928    0.7806 C.3     1  UNL1        0.1895
     11 C          20.4588   73.8862   -1.4515 C.3     1  UNL1        0.1764
     12 C          21.0798   72.8873    0.5805 C.3     1  UNL1        0.2383
     13 H          18.4845   75.1521    0.7880 H       1  UNL1        0.2105
     14 H          20.5759   75.7258    2.1439 H       1  UNL1        0.2106
     15 O          21.5100   70.1295    1.0131 O.2     1  UNL1       -0.2464
     16 O          25.9398   70.8029    2.0920 O.2     1  UNL1       -0.2670
     17 N          22.3358   72.3143    0.9747 N.ar    1  UNL1       -0.2551
     18 N          23.7154   70.4670    1.5498 N.ar    1  UNL1       -0.2743
     19 C          22.4456   70.9173    1.1667 C.ar    1  UNL1        0.3323
     20 C          23.4421   73.1349    1.1665 C.ar    1  UNL1        0.0869
     21 C          24.6457   72.6899    1.5332 C.ar    1  UNL1        0.0795
     22 C          24.8452   71.2431    1.7543 C.ar    1  UNL1        0.2626
     23 H          23.8155   69.4974    1.6897 H       1  UNL1        0.1734
     24 O          21.7808   73.4081   -4.7941 O.3     1  UNL1       -0.2703
     25 P          21.4635   73.2132   -6.3671 P.3     1  UNL1        0.2208
     26 O          22.5776   72.1397   -6.8401 O.co2   1  UNL1       -0.4371
     27 O          21.4593   74.4901   -7.1567 O.2     1  UNL1       -0.5170
     28 O          20.0706   72.3987   -6.4051 O.3     1  UNL1       -0.2858
     29 O          19.3692   70.2471   -5.7014 O.3     1  UNL1       -0.3258
     30 O          17.5602   70.3501   -9.4119 O.3     1  UNL1       -0.3794
     31 O          15.9526   70.5845   -7.0436 O.3     1  UNL1       -0.3794
     32 O          20.1960   71.4934   -9.0583 O.3     1  UNL1       -0.3775
     33 C          18.0350   70.8960   -8.1782 C.3     1  UNL1        0.1715
     34 C          17.3191   70.1812   -7.0304 C.3     1  UNL1        0.1694
     35 C          19.5447   70.6826   -8.0862 C.3     1  UNL1        0.1967
     36 C          17.9632   70.5199   -5.6793 C.3     1  UNL1        0.1761
     37 C          20.0761   71.0018   -6.6876 C.3     1  UNL1        0.2704
     38 H          16.6022   70.4828   -9.4768 H       1  UNL1        0.2105
     39 H          15.5578   70.3654   -7.9023 H       1  UNL1        0.2105
     40 H          19.8511   71.2816   -9.9393 H       1  UNL1        0.2106
     41 O          16.0297   69.3722   -4.8712 O.3     1  UNL1       -0.3794
     42 C          17.3670   69.6972   -4.5392 C.3     1  UNL1        0.1693
     43 H          15.6375   68.8482   -4.1547 H       1  UNL1        0.2105
@<TRIPOS>UNITY_ATOM_ATTR
2 1
charge -1
26 1
charge -1
@<TRIPOS>BOND
     1    25    28    1
     2    25    24    1
     3    25    26    1
     4    25    27    2
     5     1     4    1
     6     1    24    1
     7     1     2    1
     8     1     3    2
     9     6    11    1
    10     6    12    1
    11    29    36    1
    12    29    37    1
    13     7     9    1
    14     7    13    1
    15     8    10    1
    16     8    14    1
    17    28    37    1
    18     4     5    1
    19    30    33    1
    20    30    38    1
    21    31    34    1
    22    31    39    1
    23    32    35    1
    24    32    40    1
    25    41    42    1
    26    41    43    1
    27    15    19    2
    28    16    22    2
    29    17    12    1
    30    17    19   ar
    31    17    20   ar
    32    18    19   ar
    33    18    22   ar
    34    18    23    1
    35     9    10    1
    36     9    11    1
    37    10    12    1
    38    11     5    1
    39    33    34    1
    40    33    35    1
    41    34    36    1
    42    35    37    1
    43    36    42    1
    44    20    21   ar
    45    21    22   ar
@<TRIPOS>MOLECULE
*****
 43 45 0 0 0
SMALL
GASTEIGER

@<TRIPOS>ATOM
      1 P          23.0938   71.8328   -2.3458 P.3     1  UNL1        0.2189
      2 O          23.5238   73.2833   -1.7727 O.co2   1  UNL1       -0.4371
      3 O          24.2273   70.9899   -2.8519 O.2     1  UNL1       -0.5170
      4 O          21.9331   72.1688   -3.4217 O.3     1  UNL1       -0.3112
      5 C          21.1085   71.1111   -3.8792 C.3     1  UNL1        0.1811
      6 O          19.1041   71.9747   -4.8843 O.3     1  UNL1       -0.3308
      7 O          17.6455   70.7895   -2.5479 O.3     1  UNL1       -0.3794
      8 O          17.1964   68.9596   -4.5192 O.3     1  UNL1       -0.3779
      9 C          18.7844   70.2910   -3.2476 C.3     1  UNL1        0.1713
     10 C          18.3727   69.7389   -4.5964 C.3     1  UNL1        0.1895
     11 C          19.6507   71.4807   -3.6419 C.3     1  UNL1        0.1764
     12 C          18.1816   71.0070   -5.4109 C.3     1  UNL1        0.2383
     13 H          17.0772   70.0478   -2.2854 H       1  UNL1        0.2105
     14 H          17.3691   68.1646   -3.9912 H       1  UNL1        0.2106
     15 O          20.6597   70.1187   -6.4346 O.2     1  UNL1       -0.2464
     16 O          19.1323   70.2851  -10.7798 O.2     1  UNL1       -0.2670
     17 N          18.4590   70.8091   -6.8056 N.ar    1  UNL1       -0.2551
     18 N          19.8971   70.2021   -8.5973 N.ar    1  UNL1       -0.2743
     19 C          19.7367   70.3613   -7.2149 C.ar    1  UNL1        0.3323
     20 C          17.4701   71.0580   -7.7511 C.ar    1  UNL1        0.0869
     21 C          17.6394   70.9026   -9.0658 C.ar    1  UNL1        0.0795
     22 C          18.9452   70.4378   -9.5766 C.ar    1  UNL1        0.2626
     23 H          20.7791   69.8913   -8.9058 H       1  UNL1        0.1734
     24 O          22.2712   71.1848   -1.1144 O.3     1  UNL1       -0.2703
     25 P          22.6317   71.0648    0.4568 P.3     1  UNL1        0.2208
     26 O          24.2409   70.8971    0.4565 O.co2   1  UNL1       -0.4371
     27 O          21.8953   69.9716    1.1754 O.2     1  UNL1       -0.5170
     28 O          22.3763   72.5445    1.0487 O.3     1  UNL1       -0.2858
     29 O          23.2724   74.5850    1.8548 O.3     1  UNL1       -0.3258
     30 O          22.2884   72.8268    5.4592 O.3     1  UNL1       -0.3794
     31 O          20.7211   75.0246    4.4790 O.3     1  UNL1       -0.3794
     32 O          23.3660   71.2124    3.3116 O.3     1  UNL1       -0.3775
     33 C          22.1266   73.1327    4.0715 C.3     1  UNL1        0.1715
     34 C          21.9805   74.6489    3.9286 C.3     1  UNL1        0.1694
     35 C          23.3507   72.6358    3.3047 C.3     1  UNL1        0.1967
     36 C          22.0703   75.0779    2.4579 C.3     1  UNL1        0.1761
     37 C          23.3677   73.1593    1.8674 C.3     1  UNL1        0.2704
     38 H          21.5143   73.1392    5.9517 H       1  UNL1        0.2105
     39 H          20.6771   74.7476    5.4077 H       1  UNL1        0.2105
     40 H          23.3554   70.8934    4.2270 H       1  UNL1        0.2106
     41 O          23.4296   77.0395    2.3420 O.3     1  UNL1       -0.3794
     42 C          22.0852   76.5973    2.3052 C.3     1  UNL1        0.1693
     43 H          23.4546   78.0048    2.2456 H       1  UNL1        0.2105
@<TRIPOS>UNITY_ATOM_ATTR
2 1
charge -1
26 1
charge -1
@<TRIPOS>BOND
     1    25    28    1
     2    25    24    1
     3    25    26    1
     4    25    27    2
     5     1     4    1
     6     1    24    1
     7     1     2    1
     8     1     3    2
     9     6    11    1
    10     6    12    1
    11    29    36    1
    12    29    37    1
    13     7     9    1
    14     7    13    1
    15     8    10    1
    16     8    14    1
    17    28    37    1
    18     4     5    1
    19    30    33    1
    20    30    38    1
    21    31    34    1
    22    31    39    1
    23    32    35    1
    24    32    40    1
    25    41    42    1
    26    41    43    1
    27    15    19    2
    28    16    22    2
    29    17    12    1
    30    17    19   ar
    31    17    20   ar
    32    18    19   ar
    33    18    22   ar
    34    18    23    1
    35     9    10    1
    36     9    11    1
    37    10    12    1
    38    11     5    1
    39    33    34    1
    40    33    35    1
    41    34    36    1
    42    35    37    1
    43    36    42    1
    44    20    21   ar
    45    21    22   ar
@<TRIPOS>MOLECULE
*****
 43 45 0 0 0
SMALL
GASTEIGER

@<TRIPOS>ATOM
      1 P          21.2787   71.8391   -2.8116 P.3     1  UNL1        0.2189
      2 O          21.9155   72.8458   -3.9063 O.co2   1  UNL1       -0.4371
      3 O          21.9332   70.4911   -2.7338 O.2     1  UNL1       -0.5170
      4 O          19.6989   71.8339   -3.1614 O.3     1  UNL1       -0.3112
      5 C          19.0628   70.5900   -3.3976 C.3     1  UNL1        0.1811
      6 O          17.3617   71.4622   -4.8534 O.3     1  UNL1       -0.3308
      7 O          15.4175   69.8442   -3.2431 O.3     1  UNL1       -0.3794
      8 O          15.7694   68.3080   -5.4686 O.3     1  UNL1       -0.3779
      9 C          16.7589   69.5330   -3.6162 C.3     1  UNL1        0.1713
     10 C          16.8246   69.1654   -5.0839 C.3     1  UNL1        0.1895
     11 C          17.5687   70.8229   -3.5747 C.3     1  UNL1        0.1764
     12 C          16.7455   70.5268   -5.7535 C.3     1  UNL1        0.2383
     13 H          14.8810   69.0356   -3.2619 H       1  UNL1        0.2105
     14 H          15.8641   67.4553   -5.0162 H       1  UNL1        0.2106
     15 O          15.4794   70.6077   -8.2771 O.2     1  UNL1       -0.2464
     16 O          19.5142   70.6531  -10.5041 O.2     1  UNL1       -0.2670
     17 N          17.4408   70.5608   -7.0092 N.ar    1  UNL1       -0.2551
     18 N          17.4894   70.6304   -9.3839 N.ar    1  UNL1       -0.2743
     19 C          16.7108   70.5991   -8.2200 C.ar    1  UNL1        0.3323
     20 C          18.8313   70.5562   -7.0317 C.ar    1  UNL1        0.0869
     21 C          19.5589   70.5850   -8.1502 C.ar    1  UNL1        0.0795
     22 C          18.8733   70.6261   -9.4579 C.ar    1  UNL1        0.2626
     23 H          17.0024   70.6570  -10.2394 H       1  UNL1        0.1734
     24 O          21.3453   72.6992   -1.4446 O.3     1  UNL1       -0.2703
     25 P          20.9206   72.3220    0.0687 P.3     1  UNL1        0.2208
     26 O          20.7690   70.7119    0.0211 O.co2   1  UNL1       -0.4371
     27 O          19.7013   73.0444    0.5639 O.2     1  UNL1       -0.5170
     28 O          22.2524   72.5803    0.9432 O.3     1  UNL1       -0.2858
     29 O          24.2296   73.7467    0.3543 O.3     1  UNL1       -0.3258
     30 O          25.8859   70.7885    2.7116 O.3     1  UNL1       -0.3794
     31 O          25.7505   73.4810    3.7017 O.3     1  UNL1       -0.3794
     32 O          23.6769   70.1625    0.9487 O.3     1  UNL1       -0.3775
     33 C          24.8875   71.7330    2.3159 C.3     1  UNL1        0.1715
     34 C          25.5115   73.1296    2.3417 C.3     1  UNL1        0.1694
     35 C          24.4023   71.3867    0.9095 C.3     1  UNL1        0.1967
     36 C          24.5891   74.1608    1.6776 C.3     1  UNL1        0.1761
     37 C          23.5326   72.4997    0.3220 C.3     1  UNL1        0.2704
     38 H          26.1979   71.0024    3.6040 H       1  UNL1        0.2105
     39 H          26.3338   72.8217    4.1095 H       1  UNL1        0.2105
     40 H          24.2383   69.4659    1.3222 H       1  UNL1        0.2106
     41 O          26.3643   75.5707    2.4325 O.3     1  UNL1       -0.3794
     42 C          25.2573   75.5281    1.5510 C.3     1  UNL1        0.1693
     43 H          26.7996   76.4352    2.3625 H       1  UNL1        0.2105
@<TRIPOS>UNITY_ATOM_ATTR
2 1
charge -1
26 1
charge -1
@<TRIPOS>BOND
     1    25    28    1
     2    25    24    1
     3    25    26    1
     4    25    27    2
     5     1     4    1
     6     1    24    1
     7     1     2    1
     8     1     3    2
     9     6    11    1
    10     6    12    1
    11    29    36    1
    12    29    37    1
    13     7     9    1
    14     7    13    1
    15     8    10    1
    16     8    14    1
    17    28    37    1
    18     4     5    1
    19    30    33    1
    20    30    38    1
    21    31    34    1
    22    31    39    1
    23    32    35    1
    24    32    40    1
    25    41    42    1
    26    41    43    1
    27    15    19    2
    28    16    22    2
    29    17    12    1
    30    17    19   ar
    31    17    20   ar
    32    18    19   ar
    33    18    22   ar
    34    18    23    1
    35     9    10    1
    36     9    11    1
    37    10    12    1
    38    11     5    1
    39    33    34    1
    40    33    35    1
    41    34    36    1
    42    35    37    1
    43    36    42    1
    44    20    21   ar
    45    21    22   ar
@<TRIPOS>MOLECULE
*****
 43 45 0 0 0
SMALL
GASTEIGER

@<TRIPOS>ATOM
      1 P          22.6697   71.1742    0.2505 P.3     1  UNL1        0.2189
      2 O          21.6439   70.1319    0.9424 O.co2   1  UNL1       -0.4371
      3 O          24.1067   71.0082    0.6491 O.2     1  UNL1       -0.5170
      4 O          22.0180   72.6228    0.5583 O.3     1  UNL1       -0.3112
      5 C          22.4184   73.3088    1.7318 C.3     1  UNL1        0.1811
      6 O          22.4092   72.5547    4.0132 O.3     1  UNL1       -0.3308
      7 O          19.5004   73.2816    4.0455 O.3     1  UNL1       -0.3794
      8 O          20.6560   75.3976    5.3198 O.3     1  UNL1       -0.3779
      9 C          20.5850   73.9297    3.3829 C.3     1  UNL1        0.1713
     10 C          21.4365   74.6841    4.3826 C.3     1  UNL1        0.1895
     11 C          21.5465   72.8536    2.8940 C.3     1  UNL1        0.1764
     12 C          22.2387   73.5635    5.0222 C.3     1  UNL1        0.2383
     13 H          18.8727   73.9487    4.3663 H       1  UNL1        0.2105
     14 H          20.1648   76.0991    4.8644 H       1  UNL1        0.2106
     15 O          22.9419   73.9674    7.7278 O.2     1  UNL1       -0.2464
     16 O          27.2280   75.2439    6.6135 O.2     1  UNL1       -0.2670
     17 N          23.5316   74.0008    5.4677 N.ar    1  UNL1       -0.2551
     18 N          25.0755   74.6025    7.1708 N.ar    1  UNL1       -0.2743
     19 C          23.7815   74.1737    6.8490 C.ar    1  UNL1        0.3323
     20 C          24.5357   74.2531    4.5392 C.ar    1  UNL1        0.0869
     21 C          25.7641   74.6628    4.8623 C.ar    1  UNL1        0.0795
     22 C          26.1073   74.8677    6.2843 C.ar    1  UNL1        0.2626
     23 H          25.2725   74.7301    8.1272 H       1  UNL1        0.1734
     24 O          22.3819   70.9743   -1.3275 O.3     1  UNL1       -0.2703
     25 P          23.0332   71.6868   -2.6240 P.3     1  UNL1        0.2208
     26 O          24.3028   70.7444   -2.9667 O.co2   1  UNL1       -0.4371
     27 O          23.3732   73.1354   -2.4243 O.2     1  UNL1       -0.5170
     28 O          21.9825   71.4047   -3.8163 O.3     1  UNL1       -0.2858
     29 O          21.2092   72.3910   -5.8277 O.3     1  UNL1       -0.3258
     30 O          17.5889   71.8824   -3.9079 O.3     1  UNL1       -0.3794
     31 O          18.2634   70.1960   -6.1325 O.3     1  UNL1       -0.3794
     32 O          19.9253   72.6802   -2.3965 O.3     1  UNL1       -0.3775
     33 C          18.9297   71.5430   -4.2718 C.3     1  UNL1        0.1715
     34 C          18.9864   71.3755   -5.7915 C.3     1  UNL1        0.1694
     35 C          19.8679   72.6601   -3.8187 C.3     1  UNL1        0.1967
     36 C          20.4363   71.2747   -6.2841 C.3     1  UNL1        0.1761
     37 C          21.2713   72.4911   -4.4036 C.3     1  UNL1        0.2704
     38 H          16.9882   71.1769   -4.1923 H       1  UNL1        0.2105
     39 H          17.3497   70.2723   -5.8155 H       1  UNL1        0.2105
     40 H          19.0308   72.7880   -2.0384 H       1  UNL1        0.2106
     41 O          20.3337   69.9377   -8.2616 O.3     1  UNL1       -0.3794
     42 C          20.5231   71.2656   -7.8087 C.3     1  UNL1        0.1693
     43 H          20.3860   69.9166   -9.2304 H       1  UNL1        0.2105
@<TRIPOS>UNITY_ATOM_ATTR
2 1
charge -1
26 1
charge -1
@<TRIPOS>BOND
     1    25    28    1
     2    25    24    1
     3    25    26    1
     4    25    27    2
     5     1     4    1
     6     1    24    1
     7     1     2    1
     8     1     3    2
     9     6    11    1
    10     6    12    1
    11    29    36    1
    12    29    37    1
    13     7     9    1
    14     7    13    1
    15     8    10    1
    16     8    14    1
    17    28    37    1
    18     4     5    1
    19    30    33    1
    20    30    38    1
    21    31    34    1
    22    31    39    1
    23    32    35    1
    24    32    40    1
    25    41    42    1
    26    41    43    1
    27    15    19    2
    28    16    22    2
    29    17    12    1
    30    17    19   ar
    31    17    20   ar
    32    18    19   ar
    33    18    22   ar
    34    18    23    1
    35     9    10    1
    36     9    11    1
    37    10    12    1
    38    11     5    1
    39    33    34    1
    40    33    35    1
    41    34    36    1
    42    35    37    1
    43    36    42    1
    44    20    21   ar
    45    21    22   ar
@<TRIPOS>MOLECULE
*****
 43 45 0 0 0
SMALL
GASTEIGER

@<TRIPOS>ATOM
      1 P          22.5708   71.4958   -2.8024 P.3     1  UNL1        0.2189
      2 O          22.5061   73.1058   -2.6573 O.co2   1  UNL1       -0.4371
      3 O          23.9419   70.9358   -3.0432 O.2     1  UNL1       -0.5170
      4 O          21.4668   71.1633   -3.9375 O.3     1  UNL1       -0.3112
      5 C          20.5655   70.0936   -3.7113 C.3     1  UNL1        0.1811
      6 O          18.7962   71.3879   -4.6952 O.3     1  UNL1       -0.3308
      7 O          17.0038   70.1645   -2.6261 O.3     1  UNL1       -0.3794
      8 O          16.4315   68.6959   -4.8514 O.3     1  UNL1       -0.3779
      9 C          18.1032   69.5830   -3.3250 C.3     1  UNL1        0.1713
     10 C          17.7148   69.2800   -4.7571 C.3     1  UNL1        0.1895
     11 C          19.1670   70.6588   -3.5047 C.3     1  UNL1        0.1764
     12 C          17.7798   70.6555   -5.3989 C.3     1  UNL1        0.2383
     13 H          16.3116   69.4962   -2.4991 H       1  UNL1        0.2105
     14 H          16.4416   67.8229   -4.4291 H       1  UNL1        0.2106
     15 O          15.9541   70.0836   -7.4769 O.2     1  UNL1       -0.2464
     16 O          19.2276   70.4471  -10.7007 O.2     1  UNL1       -0.2670
     17 N          18.1278   70.5946   -6.7905 N.ar    1  UNL1       -0.2551
     18 N          17.5855   70.2653   -9.0804 N.ar    1  UNL1       -0.2743
     19 C          17.1359   70.2986   -7.7543 C.ar    1  UNL1        0.3323
     20 C          19.4401   70.8274   -7.1874 C.ar    1  UNL1        0.0869
     21 C          19.8530   70.7906   -8.4561 C.ar    1  UNL1        0.0795
     22 C          18.8791   70.4883   -9.5249 C.ar    1  UNL1        0.2626
     23 H          16.9121   70.0606   -9.7692 H       1  UNL1        0.1734
     24 O          21.8623   70.9797   -1.4442 O.3     1  UNL1       -0.2703
     25 P          22.2886   71.1488    0.1058 P.3     1  UNL1        0.2208
     26 O          23.8894   70.9159    0.0780 O.co2   1  UNL1       -0.4371
     27 O          21.5479   70.2464    1.0497 O.2     1  UNL1       -0.5170
     28 O          22.1111   72.7242    0.4087 O.3     1  UNL1       -0.2858
     29 O          21.4239   74.2121    2.1206 O.3     1  UNL1       -0.3258
     30 O          18.8261   75.3945   -0.8634 O.3     1  UNL1       -0.3794
     31 O          21.0159   77.1022   -0.1310 O.3     1  UNL1       -0.3794
     32 O          19.4731   72.5917   -0.5391 O.3     1  UNL1       -0.3775
     33 C          20.0625   74.9173   -0.3259 C.3     1  UNL1        0.1715
     34 C          20.6064   75.9743    0.6373 C.3     1  UNL1        0.1694
     35 C          19.8131   73.6001    0.4064 C.3     1  UNL1        0.1967
     36 C          21.7856   75.4264    1.4525 C.3     1  UNL1        0.1761
     37 C          21.0314   73.1698    1.2254 C.3     1  UNL1        0.2704
     38 H          18.9775   76.2304   -1.3301 H       1  UNL1        0.2105
     39 H          20.2623   77.4381   -0.6413 H       1  UNL1        0.2105
     40 H          18.7003   72.8759   -1.0509 H       1  UNL1        0.2106
     41 O          21.1675   76.6253    3.4247 O.3     1  UNL1       -0.3794
     42 C          22.2422   76.4088    2.5289 C.3     1  UNL1        0.1693
     43 H          21.4437   77.2484    4.1155 H       1  UNL1        0.2105
@<TRIPOS>UNITY_ATOM_ATTR
2 1
charge -1
26 1
charge -1
@<TRIPOS>BOND
     1    25    28    1
     2    25    24    1
     3    25    26    1
     4    25    27    2
     5     1     4    1
     6     1    24    1
     7     1     2    1
     8     1     3    2
     9     6    11    1
    10     6    12    1
    11    29    36    1
    12    29    37    1
    13     7     9    1
    14     7    13    1
    15     8    10    1
    16     8    14    1
    17    28    37    1
    18     4     5    1
    19    30    33    1
    20    30    38    1
    21    31    34    1
    22    31    39    1
    23    32    35    1
    24    32    40    1
    25    41    42    1
    26    41    43    1
    27    15    19    2
    28    16    22    2
    29    17    12    1
    30    17    19   ar
    31    17    20   ar
    32    18    19   ar
    33    18    22   ar
    34    18    23    1
    35     9    10    1
    36     9    11    1
    37    10    12    1
    38    11     5    1
    39    33    34    1
    40    33    35    1
    41    34    36    1
    42    35    37    1
    43    36    42    1
    44    20    21   ar
    45    21    22   ar
@<TRIPOS>MOLECULE
*****
 43 45 0 0 0
SMALL
GASTEIGER

@<TRIPOS>ATOM
      1 P          21.9744   71.5516    0.3952 P.3     1  UNL1        0.2189
      2 O          21.5374   70.0951    0.9476 O.co2   1  UNL1       -0.4371
      3 O          20.9530   72.6342    0.5855 O.2     1  UNL1       -0.5170
      4 O          22.4220   71.2688   -1.1337 O.3     1  UNL1       -0.3112
      5 C          22.1952   72.2779   -2.1022 C.3     1  UNL1        0.1811
      6 O          21.6981   70.5717   -3.7195 O.3     1  UNL1       -0.3308
      7 O          23.0400   72.3477   -5.7285 O.3     1  UNL1       -0.3794
      8 O          20.3940   72.8060   -6.2035 O.3     1  UNL1       -0.3779
      9 C          22.2279   72.7027   -4.6105 C.3     1  UNL1        0.1713
     10 C          20.7721   72.4047   -4.9024 C.3     1  UNL1        0.1895
     11 C          22.5322   71.7266   -3.4809 C.3     1  UNL1        0.1764
     12 C          20.7153   70.8980   -4.7156 C.3     1  UNL1        0.2383
     13 H          22.8635   72.9574   -6.4627 H       1  UNL1        0.2105
     14 H          20.4465   73.7721   -6.2720 H       1  UNL1        0.2106
     15 O          18.5039   70.4328   -6.4102 O.2     1  UNL1       -0.2464
     16 O          15.8247   69.1827   -2.8746 O.2     1  UNL1       -0.2670
     17 N          19.4278   70.4502   -4.2647 N.ar    1  UNL1       -0.2551
     18 N          17.1717   69.8106   -4.6484 N.ar    1  UNL1       -0.2743
     19 C          18.3839   70.2480   -5.1973 C.ar    1  UNL1        0.3323
     20 C          19.2106   70.2160   -2.9112 C.ar    1  UNL1        0.0869
     21 C          18.0483   69.8003   -2.4037 C.ar    1  UNL1        0.0795
     22 C          16.9062   69.5649   -3.3105 C.ar    1  UNL1        0.2626
     23 H          16.4299   69.6633   -5.2792 H       1  UNL1        0.1734
     24 O          23.3828   71.8164    1.1431 O.3     1  UNL1       -0.2703
     25 P          23.8287   71.5855    2.6796 P.3     1  UNL1        0.2208
     26 O          24.8741   70.3546    2.5815 O.co2   1  UNL1       -0.4371
     27 O          22.6850   71.3529    3.6239 O.2     1  UNL1       -0.5170
     28 O          24.7412   72.8678    3.0372 O.3     1  UNL1       -0.2858
     29 O          23.2738   74.3074    4.2166 O.3     1  UNL1       -0.3258
     30 O          26.7236   76.5671    4.4248 O.3     1  UNL1       -0.3794
     31 O          25.7537   75.2399    6.7797 O.3     1  UNL1       -0.3794
     32 O          26.1054   75.0948    2.0103 O.3     1  UNL1       -0.3775
     33 C          25.9557   75.3609    4.3995 C.3     1  UNL1        0.1715
     34 C          24.9895   75.3825    5.5855 C.3     1  UNL1        0.1694
     35 C          25.1874   75.2858    3.0814 C.3     1  UNL1        0.1967
     36 C          23.9532   74.2558    5.4765 C.3     1  UNL1        0.1761
     37 C          24.1488   74.1628    3.0961 C.3     1  UNL1        0.2704
     38 H          27.2143   76.6207    5.2589 H       1  UNL1        0.2105
     39 H          26.4045   75.9571    6.8361 H       1  UNL1        0.2105
     40 H          26.7574   75.8123    2.0116 H       1  UNL1        0.2106
     41 O          23.3594   73.6901    7.7207 O.3     1  UNL1       -0.3794
     42 C          22.8852   74.3540    6.5636 C.3     1  UNL1        0.1693
     43 H          22.6900   73.7447    8.4212 H       1  UNL1        0.2105
@<TRIPOS>UNITY_ATOM_ATTR
2 1
charge -1
26 1
charge -1
@<TRIPOS>BOND
     1    25    28    1
     2    25    24    1
     3    25    26    1
     4    25    27    2
     5     1     4    1
     6     1    24    1
     7     1     2    1
     8     1     3    2
     9     6    11    1
    10     6    12    1
    11    29    36    1
    12    29    37    1
    13     7     9    1
    14     7    13    1
    15     8    10    1
    16     8    14    1
    17    28    37    1
    18     4     5    1
    19    30    33    1
    20    30    38    1
    21    31    34    1
    22    31    39    1
    23    32    35    1
    24    32    40    1
    25    41    42    1
    26    41    43    1
    27    15    19    2
    28    16    22    2
    29    17    12    1
    30    17    19   ar
    31    17    20   ar
    32    18    19   ar
    33    18    22   ar
    34    18    23    1
    35     9    10    1
    36     9    11    1
    37    10    12    1
    38    11     5    1
    39    33    34    1
    40    33    35    1
    41    34    36    1
    42    35    37    1
    43    36    42    1
    44    20    21   ar
    45    21    22   ar
@<TRIPOS>MOLECULE
*****
 43 45 0 0 0
SMALL
GASTEIGER

@<TRIPOS>ATOM
      1 P          21.4661   72.1224   -1.6034 P.3     1  UNL1        0.2189
      2 O          22.5891   70.9596   -1.6681 O.co2   1  UNL1       -0.4371
      3 O          21.9715   73.5077   -1.8805 O.2     1  UNL1       -0.5170
      4 O          20.7652   71.9056   -0.1613 O.3     1  UNL1       -0.3112
      5 C          21.5399   71.3588    0.8916 C.3     1  UNL1        0.1811
      6 O          22.4411   71.9226    3.0466 O.3     1  UNL1       -0.3308
      7 O          20.7426   74.3895    2.9035 O.3     1  UNL1       -0.3794
      8 O          23.2124   75.3284    2.2289 O.3     1  UNL1       -0.3779
      9 C          21.4363   73.7099    1.8584 C.3     1  UNL1        0.1713
     10 C          22.9246   73.9716    1.9583 C.3     1  UNL1        0.1895
     11 C          21.3569   72.2142    2.1378 C.3     1  UNL1        0.1764
     12 C          23.3311   73.0497    3.0954 C.3     1  UNL1        0.2383
     13 H          20.7794   75.3465    2.7467 H       1  UNL1        0.2105
     14 H          22.9356   75.8740    1.4763 H       1  UNL1        0.2106
     15 O          24.0468   70.4389    2.2896 O.2     1  UNL1       -0.2464
     16 O          28.5476   71.3692    2.6337 O.2     1  UNL1       -0.2670
     17 N          24.6825   72.5827    2.9655 N.ar    1  UNL1       -0.2551
     18 N          26.2872   70.9043    2.4614 N.ar    1  UNL1       -0.2743
     19 C          24.9338   71.2529    2.5548 C.ar    1  UNL1        0.3323
     20 C          25.7416   73.4399    3.2438 C.ar    1  UNL1        0.0869
     21 C          27.0267   73.0917    3.1511 C.ar    1  UNL1        0.0795
     22 C          27.3754   71.7199    2.7284 C.ar    1  UNL1        0.2626
     23 H          26.4864   69.9827    2.1775 H       1  UNL1        0.1734
     24 O          20.3397   71.5978   -2.6373 O.3     1  UNL1       -0.2703
     25 P          18.8018   72.0480   -2.8499 P.3     1  UNL1        0.2208
     26 O          18.8316   73.6335   -2.5294 O.co2   1  UNL1       -0.4371
     27 O          17.8138   71.2691   -2.0306 O.2     1  UNL1       -0.5170
     28 O          18.5666   71.9587   -4.4441 O.3     1  UNL1       -0.2858
     29 O          17.8746   70.1276   -5.7801 O.3     1  UNL1       -0.3258
     30 O          20.5378   71.8866   -8.4000 O.3     1  UNL1       -0.3794
     31 O          17.7172   72.0724   -8.9077 O.3     1  UNL1       -0.3794
     32 O          21.1337   71.8125   -5.5683 O.3     1  UNL1       -0.3775
     33 C          19.5412   71.8643   -7.3745 C.3     1  UNL1        0.1715
     34 C          18.2865   71.1955   -7.9396 C.3     1  UNL1        0.1694
     35 C          20.0750   71.0808   -6.1767 C.3     1  UNL1        0.1967
     36 C          17.2713   70.8943   -6.8289 C.3     1  UNL1        0.1761
     37 C          18.9741   70.7923   -5.1546 C.3     1  UNL1        0.2704
     38 H          20.2054   72.3829   -9.1633 H       1  UNL1        0.2105
     39 H          18.3686   72.2549   -9.6031 H       1  UNL1        0.2105
     40 H          21.8243   71.9886   -6.2255 H       1  UNL1        0.2106
     41 O          15.7324   69.1265   -6.3648 O.3     1  UNL1       -0.3794
     42 C          16.0822   70.0867   -7.3445 C.3     1  UNL1        0.1693
     43 H          14.9767   68.6052   -6.6792 H       1  UNL1        0.2105
@<TRIPOS>UNITY_ATOM_ATTR
2 1
charge -1
26 1
charge -1
@<TRIPOS>BOND
     1    25    28    1
     2    25    24    1
     3    25    26    1
     4    25    27    2
     5     1     4    1
     6     1    24    1
     7     1     2    1
     8     1     3    2
     9     6    11    1
    10     6    12    1
    11    29    36    1
    12    29    37    1
    13     7     9    1
    14     7    13    1
    15     8    10    1
    16     8    14    1
    17    28    37    1
    18     4     5    1
    19    30    33    1
    20    30    38    1
    21    31    34    1
    22    31    39    1
    23    32    35    1
    24    32    40    1
    25    41    42    1
    26    41    43    1
    27    15    19    2
    28    16    22    2
    29    17    12    1
    30    17    19   ar
    31    17    20   ar
    32    18    19   ar
    33    18    22   ar
    34    18    23    1
    35     9    10    1
    36     9    11    1
    37    10    12    1
    38    11     5    1
    39    33    34    1
    40    33    35    1
    41    34    36    1
    42    35    37    1
    43    36    42    1
    44    20    21   ar
    45    21    22   ar
@<TRIPOS>MOLECULE
*****
 43 45 0 0 0
SMALL
GASTEIGER

@<TRIPOS>ATOM
      1 P          20.8474   71.3243   -1.6300 P.3     1  UNL1        0.2189
      2 O          22.0716   70.7725   -2.5325 O.co2   1  UNL1       -0.4371
      3 O          19.9280   70.2664   -1.0942 O.2     1  UNL1       -0.5170
      4 O          20.1547   72.4509   -2.5621 O.3     1  UNL1       -0.3112
      5 C          19.7352   72.0857   -3.8654 C.3     1  UNL1        0.1811
      6 O          17.7921   72.2902   -5.2641 O.3     1  UNL1       -0.3308
      7 O          16.2975   70.8937   -3.0717 O.3     1  UNL1       -0.3794
      8 O          16.7153   68.8914   -4.8753 O.3     1  UNL1       -0.3779
      9 C          17.6355   70.6903   -3.5230 C.3     1  UNL1        0.1713
     10 C          17.6375   69.9617   -4.8507 C.3     1  UNL1        0.1895
     11 C          18.2136   72.0475   -3.9040 C.3     1  UNL1        0.1764
     12 C          17.2702   71.0724   -5.8201 C.3     1  UNL1        0.2383
     13 H          15.9074   70.0408   -2.8223 H       1  UNL1        0.2105
     14 H          16.9925   68.2109   -4.2421 H       1  UNL1        0.2106
     15 O          15.7726   70.5023   -8.1462 O.2     1  UNL1       -0.2464
     16 O          19.5619   70.3249  -10.7637 O.2     1  UNL1       -0.2670
     17 N          17.8397   70.8729   -7.1229 N.ar    1  UNL1       -0.2551
     18 N          17.6606   70.4146   -9.4476 N.ar    1  UNL1       -0.2743
     19 C          16.9997   70.5906   -8.2252 C.ar    1  UNL1        0.3323
     20 C          19.2167   70.9581   -7.2977 C.ar    1  UNL1        0.0869
     21 C          19.8315   70.7863   -8.4698 C.ar    1  UNL1        0.0795
     22 C          19.0263   70.4881   -9.6717 C.ar    1  UNL1        0.2626
     23 H          17.0957   70.2166  -10.2296 H       1  UNL1        0.1734
     24 O          21.5971   72.2006   -0.4973 O.3     1  UNL1       -0.2703
     25 P          21.8368   71.9196    1.0764 P.3     1  UNL1        0.2208
     26 O          22.5277   70.4567    1.0910 O.co2   1  UNL1       -0.4371
     27 O          20.5973   72.0274    1.9165 O.2     1  UNL1       -0.5170
     28 O          23.0201   72.9335    1.4968 O.3     1  UNL1       -0.2858
     29 O          22.7544   75.1073    0.5910 O.3     1  UNL1       -0.3258
     30 O          18.9912   74.6046    2.2148 O.3     1  UNL1       -0.3794
     31 O          19.3296   74.5116   -0.6356 O.3     1  UNL1       -0.3794
     32 O          21.3161   73.6076    3.6221 O.3     1  UNL1       -0.3775
     33 C          20.1980   74.1890    1.5695 C.3     1  UNL1        0.1715
     34 C          20.3364   74.9711    0.2618 C.3     1  UNL1        0.1694
     35 C          21.3811   74.4724    2.4933 C.3     1  UNL1        0.1967
     36 C          21.7290   74.7791   -0.3538 C.3     1  UNL1        0.1761
     37 C          22.7173   74.2993    1.7690 C.3     1  UNL1        0.2704
     38 H          18.2360   74.4269    1.6337 H       1  UNL1        0.2105
     39 H          18.4552   74.6380   -0.2347 H       1  UNL1        0.2105
     40 H          20.4657   73.7268    4.0721 H       1  UNL1        0.2106
     41 O          21.3961   75.0251   -2.7070 O.3     1  UNL1       -0.3794
     42 C          21.9434   75.6729   -1.5733 C.3     1  UNL1        0.1693
     43 H          21.5250   75.5826   -3.4907 H       1  UNL1        0.2105
@<TRIPOS>UNITY_ATOM_ATTR
2 1
charge -1
26 1
charge -1
@<TRIPOS>BOND
     1    25    28    1
     2    25    24    1
     3    25    26    1
     4    25    27    2
     5     1     4    1
     6     1    24    1
     7     1     2    1
     8     1     3    2
     9     6    11    1
    10     6    12    1
    11    29    36    1
    12    29    37    1
    13     7     9    1
    14     7    13    1
    15     8    10    1
    16     8    14    1
    17    28    37    1
    18     4     5    1
    19    30    33    1
    20    30    38    1
    21    31    34    1
    22    31    39    1
    23    32    35    1
    24    32    40    1
    25    41    42    1
    26    41    43    1
    27    15    19    2
    28    16    22    2
    29    17    12    1
    30    17    19   ar
    31    17    20   ar
    32    18    19   ar
    33    18    22   ar
    34    18    23    1
    35     9    10    1
    36     9    11    1
    37    10    12    1
    38    11     5    1
    39    33    34    1
    40    33    35    1
    41    34    36    1
    42    35    37    1
    43    36    42    1
    44    20    21   ar
    45    21    22   ar
@<TRIPOS>MOLECULE
*****
 43 45 0 0 0
SMALL
GASTEIGER

@<TRIPOS>ATOM
      1 P          23.4059   72.3061   -3.4963 P.3     1  UNL1        0.2189
      2 O          24.1696   70.9194   -3.1627 O.co2   1  UNL1       -0.4371
      3 O          24.2683   73.3753   -4.0999 O.2     1  UNL1       -0.5170
      4 O          22.6780   72.6932   -2.1041 O.3     1  UNL1       -0.3112
      5 C          23.4709   72.8066   -0.9353 C.3     1  UNL1        0.1811
      6 O          24.5464   71.3630    0.6562 O.3     1  UNL1       -0.3308
      7 O          21.8235   70.2217    1.1796 O.3     1  UNL1       -0.3794
      8 O          22.1759   71.9109    3.2913 O.3     1  UNL1       -0.3779
      9 C          22.1965   71.5667    0.8845 C.3     1  UNL1        0.1713
     10 C          22.8567   72.2055    2.0886 C.3     1  UNL1        0.1895
     11 C          23.3402   71.5266   -0.1213 C.3     1  UNL1        0.1764
     12 C          24.2496   71.6009    2.0420 C.3     1  UNL1        0.2383
     13 H          21.0942   70.2217    1.8200 H       1  UNL1        0.2105
     14 H          21.2954   72.3172    3.2725 H       1  UNL1        0.2106
     15 O          26.9040   70.8330    2.6274 O.2     1  UNL1       -0.2464
     16 O          27.9854   75.0511    4.1370 O.2     1  UNL1       -0.2670
     17 N          25.2461   72.4783    2.5883 N.ar    1  UNL1       -0.2551
     18 N          27.4403   72.9339    3.3784 N.ar    1  UNL1       -0.2743
     19 C          26.5493   71.9931    2.8465 C.ar    1  UNL1        0.3323
     20 C          24.9273   73.8039    2.8621 C.ar    1  UNL1        0.0869
     21 C          25.7881   74.6881    3.3705 C.ar    1  UNL1        0.0795
     22 C          27.1705   74.2619    3.6691 C.ar    1  UNL1        0.2626
     23 H          28.3540   72.6184    3.5667 H       1  UNL1        0.1734
     24 O          22.1753   71.8280   -4.4290 O.3     1  UNL1       -0.2703
     25 P          20.8328   71.0008   -4.0735 P.3     1  UNL1        0.2208
     26 O          21.1955   70.2925   -2.6649 O.co2   1  UNL1       -0.4371
     27 O          20.3925   70.0505   -5.1492 O.2     1  UNL1       -0.5170
     28 O          19.7452   72.1311   -3.6934 O.3     1  UNL1       -0.2858
     29 O          20.2203   73.3416   -5.6747 O.3     1  UNL1       -0.3258
     30 O          17.2375   70.8725   -7.1092 O.3     1  UNL1       -0.3794
     31 O          19.9610   70.4099   -7.8945 O.3     1  UNL1       -0.3794
     32 O          17.0441   71.9685   -4.4369 O.3     1  UNL1       -0.3775
     33 C          18.3679   71.2183   -6.3041 C.3     1  UNL1        0.1715
     34 C          19.5225   71.5944   -7.2348 C.3     1  UNL1        0.1694
     35 C          17.9979   72.3955   -5.4036 C.3     1  UNL1        0.1967
     36 C          20.6798   72.2302   -6.4528 C.3     1  UNL1        0.1761
     37 C          19.2278   72.9848   -4.7106 C.3     1  UNL1        0.2704
     38 H          17.4656   70.1254   -7.6830 H       1  UNL1        0.2105
     39 H          19.2208   70.0181   -8.3841 H       1  UNL1        0.2105
     40 H          16.2703   71.5978   -4.8882 H       1  UNL1        0.2106
     41 O          23.0003   72.1468   -7.0160 O.3     1  UNL1       -0.3794
     42 C          21.7747   72.7560   -7.3784 C.3     1  UNL1        0.1693
     43 H          23.7064   72.4718   -7.5970 H       1  UNL1        0.2105
@<TRIPOS>UNITY_ATOM_ATTR
2 1
charge -1
26 1
charge -1
@<TRIPOS>BOND
     1    25    28    1
     2    25    24    1
     3    25    26    1
     4    25    27    2
     5     1     4    1
     6     1    24    1
     7     1     2    1
     8     1     3    2
     9     6    11    1
    10     6    12    1
    11    29    36    1
    12    29    37    1
    13     7     9    1
    14     7    13    1
    15     8    10    1
    16     8    14    1
    17    28    37    1
    18     4     5    1
    19    30    33    1
    20    30    38    1
    21    31    34    1
    22    31    39    1
    23    32    35    1
    24    32    40    1
    25    41    42    1
    26    41    43    1
    27    15    19    2
    28    16    22    2
    29    17    12    1
    30    17    19   ar
    31    17    20   ar
    32    18    19   ar
    33    18    22   ar
    34    18    23    1
    35     9    10    1
    36     9    11    1
    37    10    12    1
    38    11     5    1
    39    33    34    1
    40    33    35    1
    41    34    36    1
    42    35    37    1
    43    36    42    1
    44    20    21   ar
    45    21    22   ar
@<TRIPOS>MOLECULE
*****
 43 45 0 0 0
SMALL
GASTEIGER

@<TRIPOS>ATOM
      1 P          20.6341   71.5459   -1.4736 P.3     1  UNL1        0.2189
      2 O          21.8792   70.8842   -2.2669 O.co2   1  UNL1       -0.4371
      3 O          19.6941   70.5643   -0.8378 O.2     1  UNL1       -0.5170
      4 O          19.9740   72.5511   -2.5560 O.3     1  UNL1       -0.3112
      5 C          19.5961   72.0313   -3.8189 C.3     1  UNL1        0.1811
      6 O          17.6592   72.1549   -5.2356 O.3     1  UNL1       -0.3308
      7 O          16.2152   70.6580   -3.0758 O.3     1  UNL1       -0.3794
      8 O          16.7516   68.7016   -4.8982 O.3     1  UNL1       -0.3779
      9 C          17.5662   70.5278   -3.5152 C.3     1  UNL1        0.1713
     10 C          17.6183   69.8167   -4.8513 C.3     1  UNL1        0.1895
     11 C          18.0788   71.9170   -3.8741 C.3     1  UNL1        0.1764
     12 C          17.2050   70.9192   -5.8114 C.3     1  UNL1        0.2383
     13 H          15.8662   69.7835   -2.8406 H       1  UNL1        0.2105
     14 H          17.0565   68.0283   -4.2703 H       1  UNL1        0.2106
     15 O          15.7422   70.5199   -8.1944 O.2     1  UNL1       -0.2464
     16 O          19.5818   70.3376  -10.7371 O.2     1  UNL1       -0.2670
     17 N          17.7969   70.7647   -7.1103 N.ar    1  UNL1       -0.2551
     18 N          17.6552   70.4296   -9.4585 N.ar    1  UNL1       -0.2743
     19 C          16.9731   70.5680   -8.2430 C.ar    1  UNL1        0.3323
     20 C          19.1797   70.8091   -7.2515 C.ar    1  UNL1        0.0869
     21 C          19.8148   70.6742   -8.4176 C.ar    1  UNL1        0.0795
     22 C          19.0274   70.4653   -9.6498 C.ar    1  UNL1        0.2626
     23 H          17.1018   70.2913  -10.2613 H       1  UNL1        0.1734
     24 O          21.3577   72.5529   -0.4366 O.3     1  UNL1       -0.2703
     25 P          21.2253   72.7001    1.1676 P.3     1  UNL1        0.2208
     26 O          22.3781   71.7126    1.7273 O.co2   1  UNL1       -0.4371
     27 O          19.8514   72.4129    1.7006 O.2     1  UNL1       -0.5170
     28 O          21.7700   74.1853    1.4879 O.3     1  UNL1       -0.2858
     29 O          24.0668   73.7163    1.8360 O.3     1  UNL1       -0.3258
     30 O          23.8809   73.1115   -2.2445 O.3     1  UNL1       -0.3794
     31 O          24.1510   70.8558   -0.4876 O.3     1  UNL1       -0.3794
     32 O          22.3689   75.2624   -1.0332 O.3     1  UNL1       -0.3775
     33 C          23.3937   73.0867   -0.9001 C.3     1  UNL1        0.1715
     34 C          24.3275   72.2059   -0.0677 C.3     1  UNL1        0.1694
     35 C          23.3687   74.5123   -0.3518 C.3     1  UNL1        0.1967
     36 C          24.0282   72.3429    1.4312 C.3     1  UNL1        0.1761
     37 C          23.1116   74.5331    1.1560 C.3     1  UNL1        0.2704
     38 H          23.8988   72.2094   -2.5987 H       1  UNL1        0.2105
     39 H          24.3426   70.7831   -1.4358 H       1  UNL1        0.2105
     40 H          22.5431   75.2418   -1.9867 H       1  UNL1        0.2106
     41 O          24.7709   70.2101    2.2113 O.3     1  UNL1       -0.3794
     42 C          25.0479   71.5963    2.2886 C.3     1  UNL1        0.1693
     43 H          25.4123   69.7222    2.7520 H       1  UNL1        0.2105
@<TRIPOS>UNITY_ATOM_ATTR
2 1
charge -1
26 1
charge -1
@<TRIPOS>BOND
     1    25    28    1
     2    25    24    1
     3    25    26    1
     4    25    27    2
     5     1     4    1
     6     1    24    1
     7     1     2    1
     8     1     3    2
     9     6    11    1
    10     6    12    1
    11    29    36    1
    12    29    37    1
    13     7     9    1
    14     7    13    1
    15     8    10    1
    16     8    14    1
    17    28    37    1
    18     4     5    1
    19    30    33    1
    20    30    38    1
    21    31    34    1
    22    31    39    1
    23    32    35    1
    24    32    40    1
    25    41    42    1
    26    41    43    1
    27    15    19    2
    28    16    22    2
    29    17    12    1
    30    17    19   ar
    31    17    20   ar
    32    18    19   ar
    33    18    22   ar
    34    18    23    1
    35     9    10    1
    36     9    11    1
    37    10    12    1
    38    11     5    1
    39    33    34    1
    40    33    35    1
    41    34    36    1
    42    35    37    1
    43    36    42    1
    44    20    21   ar
    45    21    22   ar
@<TRIPOS>MOLECULE
*****
 43 45 0 0 0
SMALL
GASTEIGER

@<TRIPOS>ATOM
      1 P          23.4779   72.3318   -3.5855 P.3     1  UNL1        0.2189
      2 O          24.1872   70.9266   -3.2114 O.co2   1  UNL1       -0.4371
      3 O          24.4173   73.4240   -4.0049 O.2     1  UNL1       -0.5170
      4 O          22.5542   72.6557   -2.2971 O.3     1  UNL1       -0.3112
      5 C          23.1815   72.8012   -1.0349 C.3     1  UNL1        0.1811
      6 O          24.2321   71.3202    0.5387 O.3     1  UNL1       -0.3308
      7 O          21.5051   70.1528    0.9761 O.3     1  UNL1       -0.3794
      8 O          21.8063   71.7861    3.1390 O.3     1  UNL1       -0.3779
      9 C          21.8771   71.5070    0.7248 C.3     1  UNL1        0.1713
     10 C          22.5096   72.1161    1.9586 C.3     1  UNL1        0.1895
     11 C          23.0410   71.4991   -0.2584 C.3     1  UNL1        0.1764
     12 C          23.9063   71.5193    1.9240 C.3     1  UNL1        0.2383
     13 H          20.7631   70.1322    1.6013 H       1  UNL1        0.2105
     14 H          20.9243   72.1887    3.1133 H       1  UNL1        0.2106
     15 O          26.5766   70.7738    2.4638 O.2     1  UNL1       -0.2464
     16 O          27.5802   74.9275    4.1902 O.2     1  UNL1       -0.2670
     17 N          24.8871   72.3862    2.5138 N.ar    1  UNL1       -0.2551
     18 N          27.0742   72.8427    3.3228 N.ar    1  UNL1       -0.2743
     19 C          26.2002   71.9137    2.7440 C.ar    1  UNL1        0.3323
     20 C          24.5433   73.6892    2.8572 C.ar    1  UNL1        0.0869
     21 C          25.3882   74.5623    3.4096 C.ar    1  UNL1        0.0795
     22 C          26.7795   74.1481    3.6831 C.ar    1  UNL1        0.2626
     23 H          27.9943   72.5356    3.4928 H       1  UNL1        0.1734
     24 O          22.3971   71.9055   -4.7094 O.3     1  UNL1       -0.2703
     25 P          20.8469   72.3206   -4.9029 P.3     1  UNL1        0.2208
     26 O          20.5415   71.9095   -6.4376 O.co2   1  UNL1       -0.4371
     27 O          20.5484   73.7549   -4.5749 O.2     1  UNL1       -0.5170
     28 O          20.0237   71.2477   -4.0220 O.3     1  UNL1       -0.2858
     29 O          17.7794   71.9779   -4.2373 O.3     1  UNL1       -0.3258
     30 O          17.1517   68.5690   -1.9931 O.3     1  UNL1       -0.3794
     31 O          16.4068   68.5978   -4.7666 O.3     1  UNL1       -0.3794
     32 O          19.4543   70.2419   -1.4648 O.3     1  UNL1       -0.3775
     33 C          17.7947   69.3780   -2.9817 C.3     1  UNL1        0.1715
     34 C          16.7538   69.7688   -4.0327 C.3     1  UNL1        0.1694
     35 C          18.3733   70.6218   -2.3096 C.3     1  UNL1        0.1967
     36 C          17.2983   70.8493   -4.9767 C.3     1  UNL1        0.1761
     37 C          18.8411   71.6534   -3.3377 C.3     1  UNL1        0.2704
     38 H          16.7826   67.7773   -2.4133 H       1  UNL1        0.2105
     39 H          16.0649   67.9233   -4.1589 H       1  UNL1        0.2105
     40 H          19.1452   69.5889   -0.8183 H       1  UNL1        0.2106
     41 O          15.9380   70.3517   -6.8768 O.3     1  UNL1       -0.3794
     42 C          16.2259   71.3668   -5.9328 C.3     1  UNL1        0.1693
     43 H          15.2566   70.6669   -7.4918 H       1  UNL1        0.2105
@<TRIPOS>UNITY_ATOM_ATTR
2 1
charge -1
26 1
charge -1
@<TRIPOS>BOND
     1    25    28    1
     2    25    24    1
     3    25    26    1
     4    25    27    2
     5     1     4    1
     6     1    24    1
     7     1     2    1
     8     1     3    2
     9     6    11    1
    10     6    12    1
    11    29    36    1
    12    29    37    1
    13     7     9    1
    14     7    13    1
    15     8    10    1
    16     8    14    1
    17    28    37    1
    18     4     5    1
    19    30    33    1
    20    30    38    1
    21    31    34    1
    22    31    39    1
    23    32    35    1
    24    32    40    1
    25    41    42    1
    26    41    43    1
    27    15    19    2
    28    16    22    2
    29    17    12    1
    30    17    19   ar
    31    17    20   ar
    32    18    19   ar
    33    18    22   ar
    34    18    23    1
    35     9    10    1
    36     9    11    1
    37    10    12    1
    38    11     5    1
    39    33    34    1
    40    33    35    1
    41    34    36    1
    42    35    37    1
    43    36    42    1
    44    20    21   ar
    45    21    22   ar
