@<TRIPOS>MOLECULE
GDU
 43 45 0 0 0
SMALL
GASTEIGER

@<TRIPOS>ATOM
      1 P          22.1010   70.9060   -2.5946 P.3     1  UNL1        0.2189
      2 O          21.4896   69.5842   -2.3328 O.2     1  UNL1       -0.5170
      3 O          23.5517   70.7032   -3.2634 O.3     1  UNL1       -0.4371
      4 O          21.1611   71.7437   -3.5954 O.3     1  UNL1       -0.3112
      5 C          20.1701   72.3862   -2.7918 C.3     1  UNL1        0.1811
      6 C          17.9232   71.3745   -5.4100 C.3     1  UNL1        0.2383
      7 C          18.0406   70.1286   -4.4951 C.3     1  UNL1        0.1895
      8 O          16.8310   69.3672   -4.5126 O.3     1  UNL1       -0.3779
      9 C          18.2707   70.7695   -3.1016 C.3     1  UNL1        0.1713
     10 C          18.7906   72.1834   -3.4212 C.3     1  UNL1        0.1764
     11 O          18.8854   72.2943   -4.8519 O.3     1  UNL1       -0.3308
     12 O          17.0434   70.8334   -2.3724 O.3     1  UNL1       -0.3794
     13 H          16.9696   68.6101   -3.9267 H       1  UNL1        0.2106
     14 H          16.7393   69.9232   -2.2556 H       1  UNL1        0.2105
     15 N          18.2726   71.0376   -6.7911 N.ar    1  UNL1       -0.2551
     16 C          17.3041   70.6996   -7.6605 C.ar    1  UNL1        0.3323
     17 N          17.5981   70.3889   -8.9368 N.ar    1  UNL1       -0.2743
     18 C          18.8758   70.4023   -9.3629 C.ar    1  UNL1        0.2626
     19 C          19.9070   70.7509   -8.4566 C.ar    1  UNL1        0.0795
     20 C          19.5839   71.0622   -7.1834 C.ar    1  UNL1        0.0869
     21 O          16.1468   70.6835   -7.2909 O.2     1  UNL1       -0.2464
     22 O          19.1434   70.1167  -10.5167 O.2     1  UNL1       -0.2670
     23 H          16.8860   70.1514   -9.5518 H       1  UNL1        0.1734
     24 O          22.2586   71.7075   -1.2071 O.3     1  UNL1       -0.2703
     25 P          21.9029   70.6724   -0.0272 P.3     1  UNL1        0.2208
     26 O          20.8981   69.7000   -0.5107 O.2     1  UNL1       -0.5170
     27 O          23.2371   69.8880    0.4185 O.3     1  UNL1       -0.4371
     28 O          21.3088   71.4774    1.2334 O.3     1  UNL1       -0.2858
     29 C          22.3620   72.3030    1.7323 C.3     1  UNL1        0.2704
     30 C          22.2142   72.4572    3.2468 C.3     1  UNL1        0.1967
     31 C          20.8482   73.0786    3.5538 C.3     1  UNL1        0.1715
     32 C          20.7081   74.3758    2.7494 C.3     1  UNL1        0.1694
     33 C          20.9683   74.0755    1.2712 C.3     1  UNL1        0.1761
     34 O          22.3094   71.1750    3.8699 O.3     1  UNL1       -0.3775
     35 O          20.7539   73.3645    4.9509 O.3     1  UNL1       -0.3794
     36 O          21.6553   75.3352    3.2210 O.3     1  UNL1       -0.3794
     37 O          22.2972   73.5826    1.1069 O.3     1  UNL1       -0.3258
     38 H          23.1797   70.8192    3.6445 H       1  UNL1        0.2106
     39 H          20.8592   72.5250    5.4161 H       1  UNL1        0.2105
     40 H          21.4574   75.4886    4.1540 H       1  UNL1        0.2105
     41 C          20.7971   75.3581    0.4541 C.3     1  UNL1        0.1693
     42 O          19.8693   75.1256   -0.6071 O.3     1  UNL1       -0.3794
     43 H          19.7893   75.9561   -1.0960 H       1  UNL1        0.2105
@<TRIPOS>BOND
     1    15    16   ar
     2    15    20   ar
     3    15     6    1
     4    16    17   ar
     5    16    21    2
     6    17    18   ar
     7    17    23    1
     8    18    19   ar
     9    18    22    2
    10    19    20   ar
    11     6     7    1
    12     6    11    1
    13     7     8    1
    14     7     9    1
    15     8    13    1
    16     9    10    1
    17     9    12    1
    18    10    11    1
    19    10     5    1
    20    12    14    1
    21     5     4    1
    22     4     1    1
    23     1     2    2
    24     1     3    1
    25     1    24    1
    26    24    25    1
    27    25    26    2
    28    25    27    1
    29    25    28    1
    30    28    29    1
    31    29    30    1
    32    29    37    1
    33    30    31    1
    34    30    34    1
    35    31    32    1
    36    31    35    1
    37    32    33    1
    38    32    36    1
    39    33    41    1
    40    33    37    1
    41    41    42    1
    42    34    38    1
    43    35    39    1
    44    36    40    1
    45    42    43    1
@<TRIPOS>MOLECULE
GDU
 43 45 0 0 0
SMALL
GASTEIGER

@<TRIPOS>ATOM
      1 P          22.9624   72.0596   -3.1510 P.3     1  UNL1        0.2189
      2 O          23.5493   70.7217   -3.3858 O.2     1  UNL1       -0.5170
      3 O          23.9064   73.1834   -3.8133 O.3     1  UNL1       -0.4371
      4 O          21.4992   72.1283   -3.8153 O.3     1  UNL1       -0.3112
      5 C          20.5708   71.7040   -2.8160 C.3     1  UNL1        0.1811
      6 C          18.1322   71.1538   -5.4002 C.3     1  UNL1        0.2383
      7 C          18.1366   69.8368   -4.5826 C.3     1  UNL1        0.1895
      8 O          16.8472   69.2202   -4.6022 O.3     1  UNL1       -0.3779
      9 C          18.4875   70.3399   -3.1581 C.3     1  UNL1        0.1713
     10 C          19.1560   71.7063   -3.3979 C.3     1  UNL1        0.1764
     11 O          19.2131   71.9143   -4.8198 O.3     1  UNL1       -0.3308
     12 O          17.3021   70.4862   -2.3738 O.3     1  UNL1       -0.3794
     13 H          16.9176   68.4099   -4.0784 H       1  UNL1        0.2106
     14 H          16.8990   69.6098   -2.3093 H       1  UNL1        0.2105
     15 N          18.3920   70.8857   -6.8156 N.ar    1  UNL1       -0.2551
     16 C          17.3617   70.6910   -7.6575 C.ar    1  UNL1        0.3323
     17 N          17.5731   70.4462   -8.9641 N.ar    1  UNL1       -0.2743
     18 C          18.8278   70.3824   -9.4496 C.ar    1  UNL1        0.2626
     19 C          19.9230   70.5798   -8.5734 C.ar    1  UNL1        0.0795
     20 C          19.6826   70.8278   -7.2683 C.ar    1  UNL1        0.0869
     21 O          16.2242   70.7460   -7.2342 O.2     1  UNL1       -0.2464
     22 O          19.0203   70.1561  -10.6313 O.2     1  UNL1       -0.2670
     23 H          16.8175   70.3123   -9.5582 H       1  UNL1        0.1734
     24 O          22.8469   72.3233   -1.5668 O.3     1  UNL1       -0.2703
     25 P          22.9627   73.9136   -1.3489 P.3     1  UNL1        0.2208
     26 O          24.3432   74.3532   -1.6490 O.2     1  UNL1       -0.5170
     27 O          21.9343   74.6663   -2.3338 O.3     1  UNL1       -0.4371
     28 O          22.6034   74.2748    0.1777 O.3     1  UNL1       -0.2858
     29 C          21.3114   73.7258    0.4410 C.3     1  UNL1        0.2704
     30 C          20.7251   74.3813    1.6923 C.3     1  UNL1        0.1967
     31 C          21.6687   74.1340    2.8734 C.3     1  UNL1        0.1715
     32 C          21.9277   72.6274    2.9866 C.3     1  UNL1        0.1694
     33 C          22.4251   72.1051    1.6365 C.3     1  UNL1        0.1761
     34 O          20.5850   75.7865    1.4757 O.3     1  UNL1       -0.3775
     35 O          21.0657   74.6118    4.0778 O.3     1  UNL1       -0.3794
     36 O          20.7171   71.9602    3.3459 O.3     1  UNL1       -0.3794
     37 O          21.4264   72.3188    0.6401 O.3     1  UNL1       -0.3258
     38 H          19.9903   75.8945    0.7211 H       1  UNL1        0.2106
     39 H          20.9105   75.5571    3.9572 H       1  UNL1        0.2105
     40 H          20.4388   72.3239    4.1965 H       1  UNL1        0.2105
     41 C          22.7196   70.6075    1.7481 C.3     1  UNL1        0.1693
     42 O          21.7710   69.8770    0.9687 O.3     1  UNL1       -0.3794
     43 H          21.9914   68.9403    1.0652 H       1  UNL1        0.2105
@<TRIPOS>BOND
     1    15    16   ar
     2    15    20   ar
     3    15     6    1
     4    16    17   ar
     5    16    21    2
     6    17    18   ar
     7    17    23    1
     8    18    19   ar
     9    18    22    2
    10    19    20   ar
    11     6     7    1
    12     6    11    1
    13     7     8    1
    14     7     9    1
    15     8    13    1
    16     9    10    1
    17     9    12    1
    18    10    11    1
    19    10     5    1
    20    12    14    1
    21     5     4    1
    22     4     1    1
    23     1     2    2
    24     1     3    1
    25     1    24    1
    26    24    25    1
    27    25    26    2
    28    25    27    1
    29    25    28    1
    30    28    29    1
    31    29    30    1
    32    29    37    1
    33    30    31    1
    34    30    34    1
    35    31    32    1
    36    31    35    1
    37    32    33    1
    38    32    36    1
    39    33    41    1
    40    33    37    1
    41    41    42    1
    42    34    38    1
    43    35    39    1
    44    36    40    1
    45    42    43    1
@<TRIPOS>MOLECULE
GDU
 43 45 0 0 0
SMALL
GASTEIGER

@<TRIPOS>ATOM
      1 P          22.0368   70.3931   -0.4287 P.3     1  UNL1        0.2189
      2 O          22.6862   69.1399    0.0155 O.2     1  UNL1       -0.5170
      3 O          23.0457   71.2125   -1.3793 O.3     1  UNL1       -0.4371
      4 O          20.6958   70.0430   -1.2448 O.3     1  UNL1       -0.3112
      5 C          20.8702   70.5555   -2.5667 C.3     1  UNL1        0.1811
      6 C          18.3964   71.0262   -5.1330 C.3     1  UNL1        0.2383
      7 C          18.0041   69.6884   -4.4551 C.3     1  UNL1        0.1895
      8 O          16.5900   69.4863   -4.5062 O.3     1  UNL1       -0.3779
      9 C          18.4785   69.9125   -2.9957 C.3     1  UNL1        0.1713
     10 C          19.5239   71.0373   -3.1104 C.3     1  UNL1        0.1764
     11 O          19.6501   71.3674   -4.5045 O.3     1  UNL1       -0.3308
     12 O          17.3843   70.3194   -2.1716 O.3     1  UNL1       -0.3794
     13 H          16.4132   68.6410   -4.0701 H       1  UNL1        0.2106
     14 H          16.7389   69.5998   -2.1874 H       1  UNL1        0.2105
     15 N          18.5749   70.8436   -6.5744 N.ar    1  UNL1       -0.2551
     16 C          17.4981   70.7887   -7.3781 C.ar    1  UNL1        0.3323
     17 N          17.6348   70.6251   -8.7071 N.ar    1  UNL1       -0.2743
     18 C          18.8593   70.5031   -9.2549 C.ar    1  UNL1        0.2626
     19 C          20.0023   70.5532   -8.4199 C.ar    1  UNL1        0.0795
     20 C          19.8369   70.7224   -7.0908 C.ar    1  UNL1        0.0869
     21 O          16.3871   70.8977   -6.8985 O.2     1  UNL1       -0.2464
     22 O          18.9838   70.3501  -10.4572 O.2     1  UNL1       -0.2670
     23 H          16.8468   70.5920   -9.2727 H       1  UNL1        0.1734
     24 O          21.6659   71.2890    0.8566 O.3     1  UNL1       -0.2703
     25 P          21.9130   72.8243    0.4423 P.3     1  UNL1        0.2208
     26 O          23.1551   72.9260   -0.3551 O.2     1  UNL1       -0.5170
     27 O          20.6685   73.3503   -0.4345 O.3     1  UNL1       -0.4371
     28 O          22.0510   73.7240    1.7696 O.3     1  UNL1       -0.2858
     29 C          22.6908   72.9130    2.7559 C.3     1  UNL1        0.2704
     30 C          21.6972   72.5915    3.8733 C.3     1  UNL1        0.1967
     31 C          21.1998   73.9023    4.4905 C.3     1  UNL1        0.1715
     32 C          22.4140   74.7350    4.9170 C.3     1  UNL1        0.1694
     33 C          23.3529   74.8957    3.7188 C.3     1  UNL1        0.1761
     34 O          20.5914   71.8638    3.3358 O.3     1  UNL1       -0.3775
     35 O          20.3855   73.6177    5.6301 O.3     1  UNL1       -0.3794
     36 O          23.0983   74.0718    5.9809 O.3     1  UNL1       -0.3794
     37 O          23.8111   73.6139    3.2910 O.3     1  UNL1       -0.3258
     38 H          20.9513   71.0523    2.9526 H       1  UNL1        0.2106
     39 H          19.6437   73.0844    5.3178 H       1  UNL1        0.2105
     40 H          22.4690   73.9877    6.7090 H       1  UNL1        0.2105
     41 C          24.5525   75.7549    4.1247 C.3     1  UNL1        0.1693
     42 O          24.7731   75.6296    5.5306 O.3     1  UNL1       -0.3794
     43 H          25.5358   76.1843    5.7448 H       1  UNL1        0.2105
@<TRIPOS>BOND
     1    15    16   ar
     2    15    20   ar
     3    15     6    1
     4    16    17   ar
     5    16    21    2
     6    17    18   ar
     7    17    23    1
     8    18    19   ar
     9    18    22    2
    10    19    20   ar
    11     6     7    1
    12     6    11    1
    13     7     8    1
    14     7     9    1
    15     8    13    1
    16     9    10    1
    17     9    12    1
    18    10    11    1
    19    10     5    1
    20    12    14    1
    21     5     4    1
    22     4     1    1
    23     1     2    2
    24     1     3    1
    25     1    24    1
    26    24    25    1
    27    25    26    2
    28    25    27    1
    29    25    28    1
    30    28    29    1
    31    29    30    1
    32    29    37    1
    33    30    31    1
    34    30    34    1
    35    31    32    1
    36    31    35    1
    37    32    33    1
    38    32    36    1
    39    33    41    1
    40    33    37    1
    41    41    42    1
    42    34    38    1
    43    35    39    1
    44    36    40    1
    45    42    43    1
@<TRIPOS>MOLECULE
GDU
 43 45 0 0 0
SMALL
GASTEIGER

@<TRIPOS>ATOM
      1 P          22.4416   73.0510   -4.9208 P.3     1  UNL1        0.2189
      2 O          23.6289   72.6390   -4.1396 O.2     1  UNL1       -0.5170
      3 O          21.8519   74.4226   -4.3176 O.3     1  UNL1       -0.4371
      4 O          22.8614   73.2770   -6.4569 O.3     1  UNL1       -0.3112
      5 C          22.4926   74.6152   -6.7940 C.3     1  UNL1        0.1811
      6 C          19.4577   73.6110   -8.4399 C.3     1  UNL1        0.2383
      7 C          19.0961   74.9441   -7.7363 C.3     1  UNL1        0.1895
      8 O          18.0951   75.6529   -8.4704 O.3     1  UNL1       -0.3779
      9 C          20.4472   75.7048   -7.7672 C.3     1  UNL1        0.1713
     10 C          21.4976   74.5945   -7.9558 C.3     1  UNL1        0.1764
     11 O          20.7975   73.3384   -7.9770 O.3     1  UNL1       -0.3308
     12 O          20.4785   76.6233   -8.8614 O.3     1  UNL1       -0.3794
     13 H          17.9160   76.4684   -7.9817 H       1  UNL1        0.2106
     14 H          19.7624   77.2564   -8.7162 H       1  UNL1        0.2105
     15 N          18.5432   72.5441   -8.0296 N.ar    1  UNL1       -0.2551
     16 C          18.2948   71.5206   -8.8657 C.ar    1  UNL1        0.3323
     17 N          17.4608   70.5252   -8.5115 N.ar    1  UNL1       -0.2743
     18 C          16.8508   70.5440   -7.3108 C.ar    1  UNL1        0.2626
     19 C          17.0985   71.6188   -6.4221 C.ar    1  UNL1        0.0795
     20 C          17.9426   72.6019   -6.8008 C.ar    1  UNL1        0.0869
     21 O          18.8382   71.4896   -9.9519 O.2     1  UNL1       -0.2464
     22 O          16.0920   69.6459   -6.9912 O.2     1  UNL1       -0.2670
     23 H          17.2964   69.7920   -9.1257 H       1  UNL1        0.1734
     24 O          21.3178   71.9012   -4.8338 O.3     1  UNL1       -0.2703
     25 P          20.4913   72.1583   -3.4771 P.3     1  UNL1        0.2208
     26 O          19.5988   73.3245   -3.6569 O.2     1  UNL1       -0.5170
     27 O          19.6087   70.8560   -3.1318 O.3     1  UNL1       -0.4371
     28 O          21.5157   72.4463   -2.2697 O.3     1  UNL1       -0.2858
     29 C          20.7277   72.8011   -1.1327 C.3     1  UNL1        0.2704
     30 C          21.1845   74.1604   -0.6008 C.3     1  UNL1        0.1967
     31 C          22.6674   74.0766   -0.2263 C.3     1  UNL1        0.1715
     32 C          22.8640   72.9000    0.7363 C.3     1  UNL1        0.1694
     33 C          22.2811   71.6349    0.1016 C.3     1  UNL1        0.1761
     34 O          20.9994   75.1556   -1.6090 O.3     1  UNL1       -0.3775
     35 O          23.0718   75.2917    0.4081 O.3     1  UNL1       -0.3794
     36 O          22.1954   73.1738    1.9684 O.3     1  UNL1       -0.3794
     37 O          20.8825   71.8085   -0.1210 O.3     1  UNL1       -0.3258
     38 H          20.0555   75.1686   -1.8183 H       1  UNL1        0.2106
     39 H          22.9200   76.0030   -0.2270 H       1  UNL1        0.2105
     40 H          22.5899   73.9790    2.3280 H       1  UNL1        0.2105
     41 C          22.5029   70.4467    1.0403 C.3     1  UNL1        0.1693
     42 O          22.7711   69.2747    0.2686 O.3     1  UNL1       -0.3794
     43 H          22.9053   68.5512    0.8961 H       1  UNL1        0.2105
@<TRIPOS>BOND
     1    15    16   ar
     2    15    20   ar
     3    15     6    1
     4    16    17   ar
     5    16    21    2
     6    17    18   ar
     7    17    23    1
     8    18    19   ar
     9    18    22    2
    10    19    20   ar
    11     6     7    1
    12     6    11    1
    13     7     8    1
    14     7     9    1
    15     8    13    1
    16     9    10    1
    17     9    12    1
    18    10    11    1
    19    10     5    1
    20    12    14    1
    21     5     4    1
    22     4     1    1
    23     1     2    2
    24     1     3    1
    25     1    24    1
    26    24    25    1
    27    25    26    2
    28    25    27    1
    29    25    28    1
    30    28    29    1
    31    29    30    1
    32    29    37    1
    33    30    31    1
    34    30    34    1
    35    31    32    1
    36    31    35    1
    37    32    33    1
    38    32    36    1
    39    33    41    1
    40    33    37    1
    41    41    42    1
    42    34    38    1
    43    35    39    1
    44    36    40    1
    45    42    43    1
@<TRIPOS>MOLECULE
GDU
 43 45 0 0 0
SMALL
GASTEIGER

@<TRIPOS>ATOM
      1 P          20.5030   70.5451   -2.0350 P.3     1  UNL1        0.2189
      2 O          19.4270   69.5330   -2.1213 O.2     1  UNL1       -0.5170
      3 O          21.9036   69.8772   -2.4653 O.3     1  UNL1       -0.4371
      4 O          20.1677   71.7709   -3.0209 O.3     1  UNL1       -0.3112
      5 C          18.7445   71.8487   -3.1150 C.3     1  UNL1        0.1811
      6 C          18.1656   72.8473   -6.5202 C.3     1  UNL1        0.2383
      7 C          16.7776   72.3826   -6.0096 C.3     1  UNL1        0.1895
      8 O          15.7280   73.1051   -6.6572 O.3     1  UNL1       -0.3779
      9 C          16.8487   72.7421   -4.5027 C.3     1  UNL1        0.1713
     10 C          18.3578   72.8418   -4.2125 C.3     1  UNL1        0.1764
     11 O          19.0527   72.5196   -5.4297 O.3     1  UNL1       -0.3308
     12 O          16.2015   73.9920   -4.2562 O.3     1  UNL1       -0.3794
     13 H          14.8951   72.7698   -6.2969 H       1  UNL1        0.2106
     14 H          15.2755   73.8832   -4.5120 H       1  UNL1        0.2105
     15 N          18.5438   72.1157   -7.7304 N.ar    1  UNL1       -0.2551
     16 C          18.5960   72.7595   -8.9098 C.ar    1  UNL1        0.3323
     17 N          18.9443   72.1110  -10.0368 N.ar    1  UNL1       -0.2743
     18 C          19.2381   70.7970  -10.0021 C.ar    1  UNL1        0.2626
     19 C          19.1817   70.1046   -8.7677 C.ar    1  UNL1        0.0795
     20 C          18.8336   70.7801   -7.6519 C.ar    1  UNL1        0.0869
     21 O          18.3342   73.9450   -8.9568 O.2     1  UNL1       -0.2464
     22 O          19.5489   70.2081  -11.0224 O.2     1  UNL1       -0.2670
     23 H          18.9810   72.5924  -10.8786 H       1  UNL1        0.1734
     24 O          20.6101   71.0854   -0.5220 O.3     1  UNL1       -0.2703
     25 P          22.0418   70.6137    0.0417 P.3     1  UNL1        0.2208
     26 O          21.9314   69.2400    0.5800 O.2     1  UNL1       -0.5170
     27 O          23.1224   70.6364   -1.1524 O.3     1  UNL1       -0.4371
     28 O          22.5150   71.6129    1.2111 O.3     1  UNL1       -0.2858
     29 C          21.4361   72.5191    1.4446 C.3     1  UNL1        0.2704
     30 C          21.8055   73.9010    0.9031 C.3     1  UNL1        0.1967
     31 C          23.0797   74.3858    1.6014 C.3     1  UNL1        0.1715
     32 C          22.8647   74.3155    3.1175 C.3     1  UNL1        0.1694
     33 C          22.4165   72.9004    3.4915 C.3     1  UNL1        0.1761
     34 O          22.0316   73.8184   -0.5052 O.3     1  UNL1       -0.3775
     35 O          23.3555   75.7339    1.2153 O.3     1  UNL1       -0.3794
     36 O          21.8617   75.2568    3.5021 O.3     1  UNL1       -0.3794
     37 O          21.1805   72.6003    2.8448 O.3     1  UNL1       -0.3258
     38 H          21.2081   73.5033   -0.9020 H       1  UNL1        0.2106
     39 H          23.4713   75.7323    0.2567 H       1  UNL1        0.2105
     40 H          22.1833   76.1301    3.2427 H       1  UNL1        0.2105
     41 C          22.2319   72.8098    5.0080 C.3     1  UNL1        0.1693
     42 O          20.8927   73.1740    5.3466 O.3     1  UNL1       -0.3794
     43 H          20.8180   73.1033    6.3082 H       1  UNL1        0.2105
@<TRIPOS>BOND
     1    15    16   ar
     2    15    20   ar
     3    15     6    1
     4    16    17   ar
     5    16    21    2
     6    17    18   ar
     7    17    23    1
     8    18    19   ar
     9    18    22    2
    10    19    20   ar
    11     6     7    1
    12     6    11    1
    13     7     8    1
    14     7     9    1
    15     8    13    1
    16     9    10    1
    17     9    12    1
    18    10    11    1
    19    10     5    1
    20    12    14    1
    21     5     4    1
    22     4     1    1
    23     1     2    2
    24     1     3    1
    25     1    24    1
    26    24    25    1
    27    25    26    2
    28    25    27    1
    29    25    28    1
    30    28    29    1
    31    29    30    1
    32    29    37    1
    33    30    31    1
    34    30    34    1
    35    31    32    1
    36    31    35    1
    37    32    33    1
    38    32    36    1
    39    33    41    1
    40    33    37    1
    41    41    42    1
    42    34    38    1
    43    35    39    1
    44    36    40    1
    45    42    43    1
@<TRIPOS>MOLECULE
GDU
 43 45 0 0 0
SMALL
GASTEIGER

@<TRIPOS>ATOM
      1 P          22.0693   74.0359   -6.6617 P.3     1  UNL1        0.2189
      2 O          22.7407   72.7369   -6.8883 O.2     1  UNL1       -0.5170
      3 O          23.1647   75.2161   -6.6785 O.3     1  UNL1       -0.4371
      4 O          20.9874   74.2913   -7.8241 O.3     1  UNL1       -0.3112
      5 C          21.2831   73.3694   -8.8744 C.3     1  UNL1        0.1811
      6 C          18.6717   71.2223   -7.6506 C.3     1  UNL1        0.2383
      7 C          17.9697   72.5798   -7.9101 C.3     1  UNL1        0.1895
      8 O          16.6031   72.3844   -8.2809 O.3     1  UNL1       -0.3779
      9 C          18.7894   73.1476   -9.0979 C.3     1  UNL1        0.1713
     10 C          20.1244   72.3829   -9.0308 C.3     1  UNL1        0.1764
     11 O          20.0656   71.5133   -7.8869 O.3     1  UNL1       -0.3308
     12 O          18.1202   72.8918  -10.3343 O.3     1  UNL1       -0.3794
     13 H          16.2255   73.2630   -8.4272 H       1  UNL1        0.2106
     14 H          17.2686   73.3473  -10.2913 H       1  UNL1        0.2105
     15 N          18.4628   70.7870   -6.2686 N.ar    1  UNL1       -0.2551
     16 C          17.3506   70.1037   -5.9457 C.ar    1  UNL1        0.3323
     17 N          17.1360   69.6888   -4.6832 N.ar    1  UNL1       -0.2743
     18 C          18.0327   69.9620   -3.7160 C.ar    1  UNL1        0.2626
     19 C          19.2062   70.6859   -4.0404 C.ar    1  UNL1        0.0795
     20 C          19.3985   71.0863   -5.3152 C.ar    1  UNL1        0.0869
     21 O          16.5329   69.8494   -6.8075 O.2     1  UNL1       -0.2464
     22 O          17.8371   69.5910   -2.5721 O.2     1  UNL1       -0.2670
     23 H          16.3298   69.1931   -4.4688 H       1  UNL1        0.1734
     24 O          21.3283   74.0137   -5.2324 O.3     1  UNL1       -0.2703
     25 P          22.4485   73.6636   -4.1314 P.3     1  UNL1        0.2208
     26 O          23.4033   72.6832   -4.6939 O.2     1  UNL1       -0.5170
     27 O          23.2377   75.0070   -3.7231 O.3     1  UNL1       -0.4371
     28 O          21.7433   73.0394   -2.8263 O.3     1  UNL1       -0.2858
     29 C          22.7748   72.8157   -1.8642 C.3     1  UNL1        0.2704
     30 C          22.6752   71.3843   -1.3345 C.3     1  UNL1        0.1967
     31 C          21.2941   71.1810   -0.7040 C.3     1  UNL1        0.1715
     32 C          21.0652   72.2801    0.3397 C.3     1  UNL1        0.1694
     33 C          21.2851   73.6446   -0.3181 C.3     1  UNL1        0.1761
     34 O          22.8519   70.4621   -2.4113 O.3     1  UNL1       -0.3775
     35 O          21.2375   69.8989   -0.0749 O.3     1  UNL1       -0.3794
     36 O          21.9837   72.1116    1.4203 O.3     1  UNL1       -0.3794
     37 O          22.6285   73.7409   -0.7894 O.3     1  UNL1       -0.3258
     38 H          23.7289   70.6306   -2.7819 H       1  UNL1        0.2106
     39 H          21.3982   69.2418   -0.7639 H       1  UNL1        0.2105
     40 H          21.8130   71.2395    1.7994 H       1  UNL1        0.2105
     41 C          21.0255   74.7508    0.7070 C.3     1  UNL1        0.1693
     42 O          20.0820   74.2896    1.6756 O.3     1  UNL1       -0.3794
     43 H          19.9470   75.0141    2.3018 H       1  UNL1        0.2105
@<TRIPOS>BOND
     1    15    16   ar
     2    15    20   ar
     3    15     6    1
     4    16    17   ar
     5    16    21    2
     6    17    18   ar
     7    17    23    1
     8    18    19   ar
     9    18    22    2
    10    19    20   ar
    11     6     7    1
    12     6    11    1
    13     7     8    1
    14     7     9    1
    15     8    13    1
    16     9    10    1
    17     9    12    1
    18    10    11    1
    19    10     5    1
    20    12    14    1
    21     5     4    1
    22     4     1    1
    23     1     2    2
    24     1     3    1
    25     1    24    1
    26    24    25    1
    27    25    26    2
    28    25    27    1
    29    25    28    1
    30    28    29    1
    31    29    30    1
    32    29    37    1
    33    30    31    1
    34    30    34    1
    35    31    32    1
    36    31    35    1
    37    32    33    1
    38    32    36    1
    39    33    41    1
    40    33    37    1
    41    41    42    1
    42    34    38    1
    43    35    39    1
    44    36    40    1
    45    42    43    1
@<TRIPOS>MOLECULE
GDU
 43 45 0 0 0
SMALL
GASTEIGER

@<TRIPOS>ATOM
      1 P          21.7396   70.8070   -0.7820 P.3     1  UNL1        0.2189
      2 O          23.1791   70.4647   -0.7743 O.2     1  UNL1       -0.5170
      3 O          20.8887   69.5372   -1.2886 O.3     1  UNL1       -0.4371
      4 O          21.2744   71.2059    0.7051 O.3     1  UNL1       -0.3112
      5 C          22.3679   70.9079    1.5746 C.3     1  UNL1        0.1811
      6 C          23.2473   73.8092    3.5075 C.3     1  UNL1        0.2383
      7 C          21.9664   74.2263    2.7405 C.3     1  UNL1        0.1895
      8 O          21.2056   75.1724    3.4950 O.3     1  UNL1       -0.3779
      9 C          21.2082   72.8789    2.6175 C.3     1  UNL1        0.1713
     10 C          22.3046   71.8140    2.8055 C.3     1  UNL1        0.1764
     11 O          23.5546   72.5066    2.9669 O.3     1  UNL1       -0.3308
     12 O          20.2149   72.7696    3.6389 O.3     1  UNL1       -0.3794
     13 H          20.4263   75.3898    2.9647 H       1  UNL1        0.2106
     14 H          19.5921   73.4965    3.5029 H       1  UNL1        0.2105
     15 N          24.3386   74.7482    3.2424 N.ar    1  UNL1       -0.2551
     16 C          25.1748   75.0965    4.2362 C.ar    1  UNL1        0.3323
     17 N          26.1883   75.9551    4.0182 N.ar    1  UNL1       -0.2743
     18 C          26.3757   76.4896    2.7962 C.ar    1  UNL1        0.2626
     19 C          25.4993   76.1362    1.7411 C.ar    1  UNL1        0.0795
     20 C          24.4936   75.2696    1.9861 C.ar    1  UNL1        0.0869
     21 O          25.0186   74.6223    5.3438 O.2     1  UNL1       -0.2464
     22 O          27.2899   77.2705    2.5990 O.2     1  UNL1       -0.2670
     23 H          26.7848   76.1921    4.7461 H       1  UNL1        0.1734
     24 O          21.4897   72.0494   -1.7752 O.3     1  UNL1       -0.2703
     25 P          21.8530   71.5414   -3.2585 P.3     1  UNL1        0.2208
     26 O          22.1849   72.7046   -4.1105 O.2     1  UNL1       -0.5170
     27 O          23.1190   70.5482   -3.1902 O.3     1  UNL1       -0.4371
     28 O          20.5924   70.7598   -3.8830 O.3     1  UNL1       -0.2858
     29 C          19.4618   71.6222   -3.7494 C.3     1  UNL1        0.2704
     30 C          18.2055   70.7820   -3.5146 C.3     1  UNL1        0.1967
     31 C          18.0185   69.8240   -4.6952 C.3     1  UNL1        0.1715
     32 C          18.0250   70.6391   -5.9934 C.3     1  UNL1        0.1694
     33 C          19.2970   71.4893   -6.0410 C.3     1  UNL1        0.1761
     34 O          18.3495   70.0328   -2.3067 O.3     1  UNL1       -0.3775
     35 O          16.7725   69.1367   -4.5632 O.3     1  UNL1       -0.3794
     36 O          16.8761   71.4869   -6.0310 O.3     1  UNL1       -0.3794
     37 O          19.3123   72.3947   -4.9383 O.3     1  UNL1       -0.3258
     38 H          18.4716   70.6742   -1.5935 H       1  UNL1        0.2106
     39 H          16.8087   68.6491   -3.7306 H       1  UNL1        0.2105
     40 H          16.1017   70.9106   -5.9932 H       1  UNL1        0.2105
     41 C          19.3300   72.2817   -7.3498 C.3     1  UNL1        0.1693
     42 O          19.6081   73.6543   -7.0678 O.3     1  UNL1       -0.3794
     43 H          19.6209   74.1175   -7.9167 H       1  UNL1        0.2105
@<TRIPOS>BOND
     1    15    16   ar
     2    15    20   ar
     3    15     6    1
     4    16    17   ar
     5    16    21    2
     6    17    18   ar
     7    17    23    1
     8    18    19   ar
     9    18    22    2
    10    19    20   ar
    11     6     7    1
    12     6    11    1
    13     7     8    1
    14     7     9    1
    15     8    13    1
    16     9    10    1
    17     9    12    1
    18    10    11    1
    19    10     5    1
    20    12    14    1
    21     5     4    1
    22     4     1    1
    23     1     2    2
    24     1     3    1
    25     1    24    1
    26    24    25    1
    27    25    26    2
    28    25    27    1
    29    25    28    1
    30    28    29    1
    31    29    30    1
    32    29    37    1
    33    30    31    1
    34    30    34    1
    35    31    32    1
    36    31    35    1
    37    32    33    1
    38    32    36    1
    39    33    41    1
    40    33    37    1
    41    41    42    1
    42    34    38    1
    43    35    39    1
    44    36    40    1
    45    42    43    1
@<TRIPOS>MOLECULE
GDU
 43 45 0 0 0
SMALL
GASTEIGER

@<TRIPOS>ATOM
      1 P          20.8533   73.4652   -3.7012 P.3     1  UNL1        0.2189
      2 O          21.9337   73.7269   -4.6779 O.2     1  UNL1       -0.5170
      3 O          21.2294   74.1441   -2.2903 O.3     1  UNL1       -0.4371
      4 O          19.4743   74.0884   -4.2459 O.3     1  UNL1       -0.3112
      5 C          18.4513   73.6926   -3.3309 C.3     1  UNL1        0.1811
      6 C          17.2044   71.6161   -5.9880 C.3     1  UNL1        0.2383
      7 C          17.5804   70.6211   -4.8604 C.3     1  UNL1        0.1895
      8 O          16.7343   69.4694   -4.8934 O.3     1  UNL1       -0.3779
      9 C          17.3195   71.4627   -3.5841 C.3     1  UNL1        0.1713
     10 C          17.3650   72.9197   -4.0808 C.3     1  UNL1        0.1764
     11 O          17.6707   72.8864   -5.4857 O.3     1  UNL1       -0.3308
     12 O          16.0367   71.1539   -3.0356 O.3     1  UNL1       -0.3794
     13 H          17.0194   68.8932   -4.1706 H       1  UNL1        0.2106
     14 H          16.0515   70.2166   -2.7989 H       1  UNL1        0.2105
     15 N          17.8910   71.2706   -7.2338 N.ar    1  UNL1       -0.2551
     16 C          17.2718   70.4992   -8.1447 C.ar    1  UNL1        0.3323
     17 N          17.8795   70.1699   -9.2998 N.ar    1  UNL1       -0.2743
     18 C          19.1286   70.6024   -9.5584 C.ar    1  UNL1        0.2626
     19 C          19.7953   71.4110   -8.6055 C.ar    1  UNL1        0.0795
     20 C          19.1612   71.7299   -7.4572 C.ar    1  UNL1        0.0869
     21 O          16.1447   70.1019   -7.9257 O.2     1  UNL1       -0.2464
     22 O          19.6812   70.3009  -10.6015 O.2     1  UNL1       -0.2670
     23 H          17.4160   69.6157   -9.9478 H       1  UNL1        0.1734
     24 O          20.6842   71.8764   -3.5025 O.3     1  UNL1       -0.2703
     25 P          21.8359   71.4087   -2.4803 P.3     1  UNL1        0.2208
     26 O          21.8134   69.9348   -2.3530 O.2     1  UNL1       -0.5170
     27 O          23.2719   71.8766   -3.0398 O.3     1  UNL1       -0.4371
     28 O          21.5793   72.0768   -1.0389 O.3     1  UNL1       -0.2858
     29 C          22.7367   71.8100   -0.2459 C.3     1  UNL1        0.2704
     30 C          22.3101   71.1857    1.0836 C.3     1  UNL1        0.1967
     31 C          21.3686   72.1520    1.8089 C.3     1  UNL1        0.1715
     32 C          22.0579   73.5166    1.9205 C.3     1  UNL1        0.1694
     33 C          22.5021   73.9653    0.5261 C.3     1  UNL1        0.1761
     34 O          21.6346   69.9510    0.8377 O.3     1  UNL1       -0.3775
     35 O          21.0783   71.6498    3.1151 O.3     1  UNL1       -0.3794
     36 O          23.1951   73.4088    2.7779 O.3     1  UNL1       -0.3794
     37 O          23.4374   73.0282   -0.0059 O.3     1  UNL1       -0.3258
     38 H          22.2607   69.3779    0.3747 H       1  UNL1        0.2106
     39 H          20.6582   70.7885    2.9968 H       1  UNL1        0.2105
     40 H          22.8692   73.1191    3.6400 H       1  UNL1        0.2105
     41 C          23.1613   75.3431    0.6216 C.3     1  UNL1        0.1693
     42 O          23.0554   76.0091   -0.6379 O.3     1  UNL1       -0.3794
     43 H          23.4811   76.8714   -0.5352 H       1  UNL1        0.2105
@<TRIPOS>BOND
     1    15    16   ar
     2    15    20   ar
     3    15     6    1
     4    16    17   ar
     5    16    21    2
     6    17    18   ar
     7    17    23    1
     8    18    19   ar
     9    18    22    2
    10    19    20   ar
    11     6     7    1
    12     6    11    1
    13     7     8    1
    14     7     9    1
    15     8    13    1
    16     9    10    1
    17     9    12    1
    18    10    11    1
    19    10     5    1
    20    12    14    1
    21     5     4    1
    22     4     1    1
    23     1     2    2
    24     1     3    1
    25     1    24    1
    26    24    25    1
    27    25    26    2
    28    25    27    1
    29    25    28    1
    30    28    29    1
    31    29    30    1
    32    29    37    1
    33    30    31    1
    34    30    34    1
    35    31    32    1
    36    31    35    1
    37    32    33    1
    38    32    36    1
    39    33    41    1
    40    33    37    1
    41    41    42    1
    42    34    38    1
    43    35    39    1
    44    36    40    1
    45    42    43    1
@<TRIPOS>MOLECULE
GDU
 43 45 0 0 0
SMALL
GASTEIGER

@<TRIPOS>ATOM
      1 P          22.9599   72.8192   -4.1786 P.3     1  UNL1        0.2189
      2 O          22.7861   72.5881   -5.6297 O.2     1  UNL1       -0.5170
      3 O          24.2730   73.7179   -3.9318 O.3     1  UNL1       -0.4371
      4 O          21.6694   73.5839   -3.5982 O.3     1  UNL1       -0.3112
      5 C          21.6785   74.8967   -4.1611 C.3     1  UNL1        0.1811
      6 C          19.0990   74.1415   -6.5492 C.3     1  UNL1        0.2383
      7 C          18.6155   73.4817   -5.2325 C.3     1  UNL1        0.1895
      8 O          17.1878   73.4648   -5.1649 O.3     1  UNL1       -0.3779
      9 C          19.2089   74.4290   -4.1574 C.3     1  UNL1        0.1713
     10 C          20.3565   75.1513   -4.8874 C.3     1  UNL1        0.1764
     11 O          20.4215   74.6180   -6.2214 O.3     1  UNL1       -0.3308
     12 O          18.2221   75.3631   -3.7151 O.3     1  UNL1       -0.3794
     13 H          16.9532   73.0434   -4.3263 H       1  UNL1        0.2106
     14 H          17.5051   74.8476   -3.3214 H       1  UNL1        0.2105
     15 N          19.1589   73.1566   -7.6305 N.ar    1  UNL1       -0.2551
     16 C          18.5838   73.4306   -8.8148 C.ar    1  UNL1        0.3323
     17 N          18.6276   72.5438   -9.8264 N.ar    1  UNL1       -0.2743
     18 C          19.2434   71.3569   -9.6641 C.ar    1  UNL1        0.2626
     19 C          19.8486   71.0522   -8.4202 C.ar    1  UNL1        0.0795
     20 C          19.7936   71.9614   -7.4238 C.ar    1  UNL1        0.0869
     21 O          18.0252   74.4973   -8.9763 O.2     1  UNL1       -0.2464
     22 O          19.2794   70.5516  -10.5777 O.2     1  UNL1       -0.2670
     23 H          18.2109   72.7599  -10.6758 H       1  UNL1        0.1734
     24 O          23.1302   71.4052   -3.4276 O.3     1  UNL1       -0.2703
     25 P          21.6868   71.0167   -2.8312 P.3     1  UNL1        0.2208
     26 O          20.6370   71.3673   -3.8131 O.2     1  UNL1       -0.5170
     27 O          21.6369   69.4343   -2.5351 O.3     1  UNL1       -0.4371
     28 O          21.4348   71.8256   -1.4629 O.3     1  UNL1       -0.2858
     29 C          22.6129   71.6761   -0.6695 C.3     1  UNL1        0.2704
     30 C          22.2315   71.1455    0.7134 C.3     1  UNL1        0.1967
     31 C          21.2565   72.1263    1.3722 C.3     1  UNL1        0.1715
     32 C          21.8851   73.5243    1.3605 C.3     1  UNL1        0.1694
     33 C          22.2912   73.8755   -0.0729 C.3     1  UNL1        0.1761
     34 O          21.6091   69.8664    0.5803 O.3     1  UNL1       -0.3775
     35 O          21.0054   71.7214    2.7196 O.3     1  UNL1       -0.3794
     36 O          23.0366   73.5375    2.2054 O.3     1  UNL1       -0.3794
     37 O          23.2610   72.9395   -0.5414 O.3     1  UNL1       -0.3258
     38 H          22.2545   69.2849    0.1557 H       1  UNL1        0.2106
     39 H          20.6231   70.8356    2.6790 H       1  UNL1        0.2105
     40 H          22.7348   73.3059    3.0934 H       1  UNL1        0.2105
     41 C          22.8889   75.2840   -0.1013 C.3     1  UNL1        0.1693
     42 O          22.4059   76.0281    1.0185 O.3     1  UNL1       -0.3794
     43 H          22.8058   76.9070    0.9640 H       1  UNL1        0.2105
@<TRIPOS>BOND
     1    15    16   ar
     2    15    20   ar
     3    15     6    1
     4    16    17   ar
     5    16    21    2
     6    17    18   ar
     7    17    23    1
     8    18    19   ar
     9    18    22    2
    10    19    20   ar
    11     6     7    1
    12     6    11    1
    13     7     8    1
    14     7     9    1
    15     8    13    1
    16     9    10    1
    17     9    12    1
    18    10    11    1
    19    10     5    1
    20    12    14    1
    21     5     4    1
    22     4     1    1
    23     1     2    2
    24     1     3    1
    25     1    24    1
    26    24    25    1
    27    25    26    2
    28    25    27    1
    29    25    28    1
    30    28    29    1
    31    29    30    1
    32    29    37    1
    33    30    31    1
    34    30    34    1
    35    31    32    1
    36    31    35    1
    37    32    33    1
    38    32    36    1
    39    33    41    1
    40    33    37    1
    41    41    42    1
    42    34    38    1
    43    35    39    1
    44    36    40    1
    45    42    43    1
@<TRIPOS>MOLECULE
GDU
 43 45 0 0 0
SMALL
GASTEIGER

@<TRIPOS>ATOM
      1 P          21.7555   71.6761   -3.5314 P.3     1  UNL1        0.2189
      2 O          22.2983   70.6523   -2.6112 O.2     1  UNL1       -0.5170
      3 O          22.9488   72.2756   -4.4312 O.3     1  UNL1       -0.4371
      4 O          20.6477   71.0068   -4.4862 O.3     1  UNL1       -0.3112
      5 C          20.5800   71.8084   -5.6666 C.3     1  UNL1        0.1811
      6 C          17.8394   71.8985   -7.9921 C.3     1  UNL1        0.2383
      7 C          19.1038   72.0587   -8.8745 C.3     1  UNL1        0.1895
      8 O          18.8957   71.4938  -10.1710 O.3     1  UNL1       -0.3779
      9 C          20.1593   71.2463   -8.0801 C.3     1  UNL1        0.1713
     10 C          19.5880   71.1867   -6.6513 C.3     1  UNL1        0.1764
     11 O          18.3606   71.9360   -6.6466 O.3     1  UNL1       -0.3308
     12 O          20.2945   69.9331   -8.6272 O.3     1  UNL1       -0.3794
     13 H          19.7153   71.6261  -10.6676 H       1  UNL1        0.2106
     14 H          20.5979   70.0395   -9.5390 H       1  UNL1        0.2105
     15 N          16.9082   73.0057   -8.2156 N.ar    1  UNL1       -0.2551
     16 C          15.7780   73.0831   -7.4911 C.ar    1  UNL1        0.3323
     17 N          14.9069   74.0928   -7.6744 N.ar    1  UNL1       -0.2743
     18 C          15.1504   75.0415   -8.5990 C.ar    1  UNL1        0.2626
     19 C          16.3340   74.9696   -9.3736 C.ar    1  UNL1        0.0795
     20 C          17.1927   73.9488   -9.1663 C.ar    1  UNL1        0.0869
     21 O          15.5450   72.2349   -6.6530 O.2     1  UNL1       -0.2464
     22 O          14.3601   75.9532   -8.7689 O.2     1  UNL1       -0.2670
     23 H          14.0983   74.1353   -7.1395 H       1  UNL1        0.1734
     24 O          21.0823   72.8625   -2.6759 O.3     1  UNL1       -0.2703
     25 P          22.2780   73.8239   -2.1901 P.3     1  UNL1        0.2208
     26 O          23.5622   73.3244   -2.7290 O.2     1  UNL1       -0.5170
     27 O          22.0162   75.3193   -2.7280 O.3     1  UNL1       -0.4371
     28 O          22.3383   73.8363   -0.5819 O.3     1  UNL1       -0.2858
     29 C          21.0911   73.3195   -0.1158 C.3     1  UNL1        0.2704
     30 C          20.6610   74.0817    1.1386 C.3     1  UNL1        0.1967
     31 C          21.7443   73.9289    2.2107 C.3     1  UNL1        0.1715
     32 C          22.0217   72.4357    2.4178 C.3     1  UNL1        0.1694
     33 C          22.3509   71.7984    1.0656 C.3     1  UNL1        0.1761
     34 O          20.4893   75.4645    0.8231 O.3     1  UNL1       -0.3775
     35 O          21.2927   74.5102    3.4358 O.3     1  UNL1       -0.3794
     36 O          20.8676   71.8085    2.9788 O.3     1  UNL1       -0.3794
     37 O          21.2358   71.9336    0.1856 O.3     1  UNL1       -0.3258
     38 H          19.8055   75.5123    0.1412 H       1  UNL1        0.2106
     39 H          21.1197   75.4429    3.2559 H       1  UNL1        0.2105
     40 H          20.6950   72.2444    3.8235 H       1  UNL1        0.2105
     41 C          22.6632   70.3137    1.2659 C.3     1  UNL1        0.1693
     42 O          21.7904   69.5299    0.4506 O.3     1  UNL1       -0.3794
     43 H          22.0199   68.6033    0.6053 H       1  UNL1        0.2105
@<TRIPOS>BOND
     1    15    16   ar
     2    15    20   ar
     3    15     6    1
     4    16    17   ar
     5    16    21    2
     6    17    18   ar
     7    17    23    1
     8    18    19   ar
     9    18    22    2
    10    19    20   ar
    11     6     7    1
    12     6    11    1
    13     7     8    1
    14     7     9    1
    15     8    13    1
    16     9    10    1
    17     9    12    1
    18    10    11    1
    19    10     5    1
    20    12    14    1
    21     5     4    1
    22     4     1    1
    23     1     2    2
    24     1     3    1
    25     1    24    1
    26    24    25    1
    27    25    26    2
    28    25    27    1
    29    25    28    1
    30    28    29    1
    31    29    30    1
    32    29    37    1
    33    30    31    1
    34    30    34    1
    35    31    32    1
    36    31    35    1
    37    32    33    1
    38    32    36    1
    39    33    41    1
    40    33    37    1
    41    41    42    1
    42    34    38    1
    43    35    39    1
    44    36    40    1
    45    42    43    1
@<TRIPOS>MOLECULE
GDU
 43 45 0 0 0
SMALL
GASTEIGER

@<TRIPOS>ATOM
      1 P          22.0730   70.7274   -2.6341 P.3     1  UNL1        0.2189
      2 O          21.4860   69.4862   -2.0822 O.2     1  UNL1       -0.5170
      3 O          23.5009   70.3955   -3.3004 O.3     1  UNL1       -0.4371
      4 O          21.0885   71.3367   -3.7505 O.3     1  UNL1       -0.3112
      5 C          20.2867   72.3243   -3.1006 C.3     1  UNL1        0.1811
      6 C          17.4259   72.2343   -5.2766 C.3     1  UNL1        0.2383
      7 C          18.0031   70.7968   -5.3331 C.3     1  UNL1        0.1895
      8 O          16.9652   69.8389   -5.5531 O.3     1  UNL1       -0.3779
      9 C          18.6131   70.6357   -3.9163 C.3     1  UNL1        0.1713
     10 C          18.8121   72.0825   -3.4278 C.3     1  UNL1        0.1764
     11 O          18.3981   72.9571   -4.4917 O.3     1  UNL1       -0.3308
     12 O          17.7108   69.9314   -3.0609 O.3     1  UNL1       -0.3794
     13 H          17.3888   68.9695   -5.5780 H       1  UNL1        0.2106
     14 H          17.5808   69.0562   -3.4507 H       1  UNL1        0.2105
     15 N          17.3220   72.8040   -6.6210 N.ar    1  UNL1       -0.2551
     16 C          16.1916   73.4290   -6.9949 C.ar    1  UNL1        0.3323
     17 N          16.0716   73.9644   -8.2241 N.ar    1  UNL1       -0.2743
     18 C          17.0844   73.8733   -9.1073 C.ar    1  UNL1        0.2626
     19 C          18.2790   73.2127   -8.7293 C.ar    1  UNL1        0.0795
     20 C          18.3744   72.6884   -7.4889 C.ar    1  UNL1        0.0869
     21 O          15.2696   73.5195   -6.2089 O.2     1  UNL1       -0.2464
     22 O          16.9750   74.3535  -10.2217 O.2     1  UNL1       -0.2670
     23 H          15.2501   74.4157   -8.4755 H       1  UNL1        0.1734
     24 O          22.2714   71.7992   -1.4491 O.3     1  UNL1       -0.2703
     25 P          22.3590   70.9652   -0.0754 P.3     1  UNL1        0.2208
     26 O          21.1172   70.1815    0.1056 O.2     1  UNL1       -0.5170
     27 O          23.6202   69.9652   -0.1345 O.3     1  UNL1       -0.4371
     28 O          22.5385   71.9810    1.1598 O.3     1  UNL1       -0.2858
     29 C          21.2268   72.3527    1.5854 C.3     1  UNL1        0.2704
     30 C          20.9843   73.8271    1.2587 C.3     1  UNL1        0.1967
     31 C          22.0439   74.6758    1.9682 C.3     1  UNL1        0.1715
     32 C          22.0315   74.3279    3.4610 C.3     1  UNL1        0.1694
     33 C          22.1968   72.8146    3.6207 C.3     1  UNL1        0.1761
     34 O          21.0762   74.0259   -0.1531 O.3     1  UNL1       -0.3775
     35 O          21.7445   76.0623    1.7934 O.3     1  UNL1       -0.3794
     36 O          20.7921   74.7416    4.0377 O.3     1  UNL1       -0.3794
     37 O          21.1075   72.1422    2.9904 O.3     1  UNL1       -0.3258
     38 H          20.3978   73.4686   -0.5581 H       1  UNL1        0.2106
     39 H          21.7512   76.2324    0.8430 H       1  UNL1        0.2105
     40 H          20.7285   75.6969    3.9090 H       1  UNL1        0.2105
     41 C          22.2202   72.4601    5.1093 C.3     1  UNL1        0.1693
     42 O          22.7014   73.5784    5.8568 O.3     1  UNL1       -0.3794
     43 H          22.7000   73.3146    6.7872 H       1  UNL1        0.2105
@<TRIPOS>BOND
     1    15    16   ar
     2    15    20   ar
     3    15     6    1
     4    16    17   ar
     5    16    21    2
     6    17    18   ar
     7    17    23    1
     8    18    19   ar
     9    18    22    2
    10    19    20   ar
    11     6     7    1
    12     6    11    1
    13     7     8    1
    14     7     9    1
    15     8    13    1
    16     9    10    1
    17     9    12    1
    18    10    11    1
    19    10     5    1
    20    12    14    1
    21     5     4    1
    22     4     1    1
    23     1     2    2
    24     1     3    1
    25     1    24    1
    26    24    25    1
    27    25    26    2
    28    25    27    1
    29    25    28    1
    30    28    29    1
    31    29    30    1
    32    29    37    1
    33    30    31    1
    34    30    34    1
    35    31    32    1
    36    31    35    1
    37    32    33    1
    38    32    36    1
    39    33    41    1
    40    33    37    1
    41    41    42    1
    42    34    38    1
    43    35    39    1
    44    36    40    1
    45    42    43    1
@<TRIPOS>MOLECULE
GDU
 43 45 0 0 0
SMALL
GASTEIGER

@<TRIPOS>ATOM
      1 P          21.9508   71.2162   -3.1682 P.3     1  UNL1        0.2189
      2 O          21.6084   69.7799   -3.0715 O.2     1  UNL1       -0.5170
      3 O          23.5381   71.3758   -3.3871 O.3     1  UNL1       -0.4371
      4 O          21.1691   71.8721   -4.4114 O.3     1  UNL1       -0.3112
      5 C          22.0510   72.8327   -4.9945 C.3     1  UNL1        0.1811
      6 C          20.0673   73.3594   -7.9465 C.3     1  UNL1        0.2383
      7 C          20.7340   74.7324   -7.6757 C.3     1  UNL1        0.1895
      8 O          20.9580   75.4403   -8.8971 O.3     1  UNL1       -0.3779
      9 C          22.0780   74.3176   -7.0222 C.3     1  UNL1        0.1713
     10 C          21.8181   72.8905   -6.5053 C.3     1  UNL1        0.1764
     11 O          20.4481   72.5682   -6.8009 O.3     1  UNL1       -0.3308
     12 O          23.1274   74.3222   -7.9921 O.3     1  UNL1       -0.3794
     13 H          21.3725   76.2816   -8.6599 H       1  UNL1        0.2106
     14 H          23.2017   75.2287   -8.3201 H       1  UNL1        0.2105
     15 N          18.6115   73.4957   -8.0183 N.ar    1  UNL1       -0.2551
     16 C          17.9797   73.2935   -9.1880 C.ar    1  UNL1        0.3323
     17 N          16.6418   73.4090   -9.2803 N.ar    1  UNL1       -0.2743
     18 C          15.9117   73.7407   -8.1981 C.ar    1  UNL1        0.2626
     19 C          16.5643   73.9624   -6.9607 C.ar    1  UNL1        0.0795
     20 C          17.9067   73.8357   -6.8950 C.ar    1  UNL1        0.0869
     21 O          18.6249   72.9932  -10.1727 O.2     1  UNL1       -0.2464
     22 O          14.7011   73.8503   -8.2817 O.2     1  UNL1       -0.2670
     23 H          16.2019   73.2553  -10.1315 H       1  UNL1        0.1734
     24 O          21.5204   71.9623   -1.8079 O.3     1  UNL1       -0.2703
     25 P          21.5674   70.8601   -0.6362 P.3     1  UNL1        0.2208
     26 O          20.6160   69.7702   -0.9460 O.2     1  UNL1       -0.5170
     27 O          23.0567   70.2567   -0.5268 O.3     1  UNL1       -0.4371
     28 O          21.1632   71.5450    0.7630 O.3     1  UNL1       -0.2858
     29 C          22.2225   72.4383    1.1090 C.3     1  UNL1        0.2704
     30 C          22.6889   72.1464    2.5361 C.3     1  UNL1        0.1967
     31 C          21.5043   72.3160    3.4923 C.3     1  UNL1        0.1715
     32 C          20.8954   73.7061    3.2765 C.3     1  UNL1        0.1694
     33 C          20.5630   73.8790    1.7924 C.3     1  UNL1        0.1761
     34 O          23.1812   70.8075    2.6143 O.3     1  UNL1       -0.3775
     35 O          21.9555   72.1911    4.8426 O.3     1  UNL1       -0.3794
     36 O          21.8318   74.7059    3.6810 O.3     1  UNL1       -0.3794
     37 O          21.7570   73.7827    1.0173 O.3     1  UNL1       -0.3258
     38 H          23.9190   70.7447    1.9926 H       1  UNL1        0.2106
     39 H          22.3401   71.3097    4.9288 H       1  UNL1        0.2105
     40 H          22.0156   74.5548    4.6173 H       1  UNL1        0.2105
     41 C          19.9226   75.2512    1.5715 C.3     1  UNL1        0.1693
     42 O          19.1861   75.2407    0.3473 O.3     1  UNL1       -0.3794
     43 H          18.7989   76.1211    0.2461 H       1  UNL1        0.2105
@<TRIPOS>BOND
     1    15    16   ar
     2    15    20   ar
     3    15     6    1
     4    16    17   ar
     5    16    21    2
     6    17    18   ar
     7    17    23    1
     8    18    19   ar
     9    18    22    2
    10    19    20   ar
    11     6     7    1
    12     6    11    1
    13     7     8    1
    14     7     9    1
    15     8    13    1
    16     9    10    1
    17     9    12    1
    18    10    11    1
    19    10     5    1
    20    12    14    1
    21     5     4    1
    22     4     1    1
    23     1     2    2
    24     1     3    1
    25     1    24    1
    26    24    25    1
    27    25    26    2
    28    25    27    1
    29    25    28    1
    30    28    29    1
    31    29    30    1
    32    29    37    1
    33    30    31    1
    34    30    34    1
    35    31    32    1
    36    31    35    1
    37    32    33    1
    38    32    36    1
    39    33    41    1
    40    33    37    1
    41    41    42    1
    42    34    38    1
    43    35    39    1
    44    36    40    1
    45    42    43    1
@<TRIPOS>MOLECULE
GDU
 43 45 0 0 0
SMALL
GASTEIGER

@<TRIPOS>ATOM
      1 P          21.8106   71.0307   -0.3472 P.3     1  UNL1        0.2189
      2 O          21.2332   69.6726   -0.2397 O.2     1  UNL1       -0.5170
      3 O          23.3075   71.0259    0.2462 O.3     1  UNL1       -0.4371
      4 O          21.8470   71.4782   -1.8916 O.3     1  UNL1       -0.3112
      5 C          21.3240   70.3872   -2.6509 C.3     1  UNL1        0.1811
      6 C          18.5947   70.7028   -4.9701 C.3     1  UNL1        0.2383
      7 C          18.4911   69.2488   -4.4427 C.3     1  UNL1        0.1895
      8 O          17.1314   68.8080   -4.4265 O.3     1  UNL1       -0.3779
      9 C          19.0453   69.3859   -3.0007 C.3     1  UNL1        0.1713
     10 C          19.8745   70.6830   -3.0403 C.3     1  UNL1        0.1764
     11 O          19.8234   71.1860   -4.3867 O.3     1  UNL1       -0.3308
     12 O          17.9736   69.4979   -2.0622 O.3     1  UNL1       -0.3794
     13 H          17.1363   67.9009   -4.0903 H       1  UNL1        0.2106
     14 H          17.4584   68.6823   -2.1268 H       1  UNL1        0.2105
     15 N          18.6764   70.7190   -6.4316 N.ar    1  UNL1       -0.2551
     16 C          17.5488   70.6773   -7.1631 C.ar    1  UNL1        0.3323
     17 N          17.5961   70.6946   -8.5082 N.ar    1  UNL1       -0.2743
     18 C          18.7811   70.7444   -9.1464 C.ar    1  UNL1        0.2626
     19 C          19.9774   70.7829   -8.3889 C.ar    1  UNL1        0.0795
     20 C          19.9012   70.7687   -7.0412 C.ar    1  UNL1        0.0869
     21 O          16.4724   70.6327   -6.6014 O.2     1  UNL1       -0.2464
     22 O          18.8251   70.7553  -10.3639 O.2     1  UNL1       -0.2670
     23 H          16.7721   70.6682   -9.0202 H       1  UNL1        0.1734
     24 O          20.9058   72.0653    0.4915 O.3     1  UNL1       -0.2703
     25 P          21.8032   72.5758    1.7260 P.3     1  UNL1        0.2208
     26 O          22.3902   71.4106    2.4238 O.2     1  UNL1       -0.5170
     27 O          22.9846   73.5219    1.1752 O.3     1  UNL1       -0.4371
     28 O          20.8838   73.4090    2.7509 O.3     1  UNL1       -0.2858
     29 C          21.7633   74.2153    3.5359 C.3     1  UNL1        0.2704
     30 C          21.5700   73.8861    5.0170 C.3     1  UNL1        0.1967
     31 C          20.1100   74.1480    5.3995 C.3     1  UNL1        0.1715
     32 C          19.7479   75.5822    4.9974 C.3     1  UNL1        0.1694
     33 C          20.0778   75.7822    3.5162 C.3     1  UNL1        0.1761
     34 O          21.8875   72.5123    5.2473 O.3     1  UNL1       -0.3775
     35 O          19.9469   73.9866    6.8101 O.3     1  UNL1       -0.3794
     36 O          20.4992   76.5043    5.7880 O.3     1  UNL1       -0.3794
     37 O          21.4761   75.5925    3.3046 O.3     1  UNL1       -0.3258
     38 H          22.8108   72.3919    4.9867 H       1  UNL1        0.2106
     39 H          20.1963   73.0774    7.0184 H       1  UNL1        0.2105
     40 H          20.2645   76.3384    6.7103 H       1  UNL1        0.2105
     41 C          19.6880   77.2011    3.0957 C.3     1  UNL1        0.1693
     42 O          20.7310   78.1078    3.4576 O.3     1  UNL1       -0.3794
     43 H          20.4471   78.9881    3.1753 H       1  UNL1        0.2105
@<TRIPOS>BOND
     1    15    16   ar
     2    15    20   ar
     3    15     6    1
     4    16    17   ar
     5    16    21    2
     6    17    18   ar
     7    17    23    1
     8    18    19   ar
     9    18    22    2
    10    19    20   ar
    11     6     7    1
    12     6    11    1
    13     7     8    1
    14     7     9    1
    15     8    13    1
    16     9    10    1
    17     9    12    1
    18    10    11    1
    19    10     5    1
    20    12    14    1
    21     5     4    1
    22     4     1    1
    23     1     2    2
    24     1     3    1
    25     1    24    1
    26    24    25    1
    27    25    26    2
    28    25    27    1
    29    25    28    1
    30    28    29    1
    31    29    30    1
    32    29    37    1
    33    30    31    1
    34    30    34    1
    35    31    32    1
    36    31    35    1
    37    32    33    1
    38    32    36    1
    39    33    41    1
    40    33    37    1
    41    41    42    1
    42    34    38    1
    43    35    39    1
    44    36    40    1
    45    42    43    1
@<TRIPOS>MOLECULE
GDU
 43 45 0 0 0
SMALL
GASTEIGER

@<TRIPOS>ATOM
      1 P          20.1911   74.3147   -2.7796 P.3     1  UNL1        0.2189
      2 O          19.2790   74.8341   -1.7367 O.2     1  UNL1       -0.5170
      3 O          21.6105   75.0679   -2.6748 O.3     1  UNL1       -0.4371
      4 O          20.4051   72.7348   -2.5675 O.3     1  UNL1       -0.3112
      5 C          20.3240   72.4912   -1.1623 C.3     1  UNL1        0.1811
      6 C          22.7547   72.3419    1.4829 C.3     1  UNL1        0.2383
      7 C          22.2825   70.8762    1.3051 C.3     1  UNL1        0.1895
      8 O          23.3321   69.9600    1.6250 O.3     1  UNL1       -0.3779
      9 C          21.9455   70.8246   -0.2079 C.3     1  UNL1        0.1713
     10 C          21.7313   72.3000   -0.5940 C.3     1  UNL1        0.1764
     11 O          21.8864   73.0848    0.6010 O.3     1  UNL1       -0.3308
     12 O          23.0334   70.2609   -0.9431 O.3     1  UNL1       -0.3794
     13 H          22.9750   69.0704    1.4949 H       1  UNL1        0.2106
     14 H          23.1557   69.3596   -0.6155 H       1  UNL1        0.2105
     15 N          22.5780   72.7785    2.8689 N.ar    1  UNL1       -0.2551
     16 C          21.3996   72.5799    3.4855 C.ar    1  UNL1        0.3323
     17 N          21.2121   72.9687    4.7605 N.ar    1  UNL1       -0.2743
     18 C          22.2049   73.5751    5.4394 C.ar    1  UNL1        0.2626
     19 C          23.4497   73.7961    4.8008 C.ar    1  UNL1        0.0795
     20 C          23.6122   73.3924    3.5228 C.ar    1  UNL1        0.0869
     21 O          20.4949   72.0337    2.8861 O.2     1  UNL1       -0.2464
     22 O          22.0346   73.9317    6.5920 O.2     1  UNL1       -0.2670
     23 H          20.3565   72.8135    5.1913 H       1  UNL1        0.1734
     24 O          19.5502   74.5804   -4.2326 O.3     1  UNL1       -0.2703
     25 P          20.5449   73.9171   -5.3098 P.3     1  UNL1        0.2208
     26 O          20.8769   74.9125   -6.3528 O.2     1  UNL1       -0.5170
     27 O          21.8957   73.4429   -4.5718 O.3     1  UNL1       -0.4371
     28 O          19.8309   72.6446   -5.9889 O.3     1  UNL1       -0.2858
     29 C          18.5459   73.0792   -6.4356 C.3     1  UNL1        0.2704
     30 C          17.4721   72.1342   -5.8940 C.3     1  UNL1        0.1967
     31 C          17.7639   70.7134   -6.3865 C.3     1  UNL1        0.1715
     32 C          17.8979   70.7418   -7.9132 C.3     1  UNL1        0.1694
     33 C          18.9417   71.7919   -8.3018 C.3     1  UNL1        0.1761
     34 O          17.4881   72.1600   -4.4656 O.3     1  UNL1       -0.3775
     35 O          16.6916   69.8459   -6.0123 O.3     1  UNL1       -0.3794
     36 O          16.6378   71.0748   -8.4974 O.3     1  UNL1       -0.3794
     37 O          18.5155   73.0803   -7.8610 O.3     1  UNL1       -0.3258
     38 H          17.3075   73.0723   -4.2010 H       1  UNL1        0.2106
     39 H          16.6366   69.8684   -5.0486 H       1  UNL1        0.2105
     40 H          16.0124   70.3919   -8.2219 H       1  UNL1        0.2105
     41 C          19.1082   71.8044   -9.8230 C.3     1  UNL1        0.1693
     42 O          18.2893   72.8327  -10.3825 O.3     1  UNL1       -0.3794
     43 H          18.4236   72.8075  -11.3399 H       1  UNL1        0.2105
@<TRIPOS>BOND
     1    15    16   ar
     2    15    20   ar
     3    15     6    1
     4    16    17   ar
     5    16    21    2
     6    17    18   ar
     7    17    23    1
     8    18    19   ar
     9    18    22    2
    10    19    20   ar
    11     6     7    1
    12     6    11    1
    13     7     8    1
    14     7     9    1
    15     8    13    1
    16     9    10    1
    17     9    12    1
    18    10    11    1
    19    10     5    1
    20    12    14    1
    21     5     4    1
    22     4     1    1
    23     1     2    2
    24     1     3    1
    25     1    24    1
    26    24    25    1
    27    25    26    2
    28    25    27    1
    29    25    28    1
    30    28    29    1
    31    29    30    1
    32    29    37    1
    33    30    31    1
    34    30    34    1
    35    31    32    1
    36    31    35    1
    37    32    33    1
    38    32    36    1
    39    33    41    1
    40    33    37    1
    41    41    42    1
    42    34    38    1
    43    35    39    1
    44    36    40    1
    45    42    43    1
@<TRIPOS>MOLECULE
GDU
 43 45 0 0 0
SMALL
GASTEIGER

@<TRIPOS>ATOM
      1 P          23.0208   72.4418   -3.4398 P.3     1  UNL1        0.2189
      2 O          23.7493   73.0660   -4.5664 O.2     1  UNL1       -0.5170
      3 O          23.4965   70.9123   -3.2748 O.3     1  UNL1       -0.4371
      4 O          23.3330   73.2501   -2.0848 O.3     1  UNL1       -0.3112
      5 C          22.1782   73.1255   -1.2533 C.3     1  UNL1        0.1811
      6 C          22.7617   73.1778    2.2941 C.3     1  UNL1        0.2383
      7 C          21.2935   72.7022    2.1483 C.3     1  UNL1        0.1895
      8 O          20.9337   71.8235    3.2167 O.3     1  UNL1       -0.3779
      9 C          21.3308   71.9430    0.7964 C.3     1  UNL1        0.1713
     10 C          22.5769   72.5039    0.0864 C.3     1  UNL1        0.1764
     11 O          23.1438   73.5107    0.9426 O.3     1  UNL1       -0.3308
     12 O          21.4623   70.5372    1.0164 O.3     1  UNL1       -0.3794
     13 H          20.0133   71.5655    3.0676 H       1  UNL1        0.2106
     14 H          20.6826   70.2575    1.5149 H       1  UNL1        0.2105
     15 N          22.8407   74.3571    3.1578 N.ar    1  UNL1       -0.2551
     16 C          22.2173   75.4921    2.7953 C.ar    1  UNL1        0.3323
     17 N          22.2713   76.5894    3.5730 N.ar    1  UNL1       -0.2743
     18 C          22.9631   76.5705    4.7286 C.ar    1  UNL1        0.2626
     19 C          23.6297   75.3837    5.1203 C.ar    1  UNL1        0.0795
     20 C          23.5556   74.2963    4.3237 C.ar    1  UNL1        0.0869
     21 O          21.5889   75.5242    1.7560 O.2     1  UNL1       -0.2464
     22 O          23.0166   77.5647    5.4308 O.2     1  UNL1       -0.2670
     23 H          21.8117   77.3987    3.2980 H       1  UNL1        0.1734
     24 O          21.4389   72.4812   -3.7374 O.3     1  UNL1       -0.2703
     25 P          21.2663   72.8345   -5.2980 P.3     1  UNL1        0.2208
     26 O          20.8128   74.2358   -5.4390 O.2     1  UNL1       -0.5170
     27 O          22.6790   72.6499   -6.0492 O.3     1  UNL1       -0.4371
     28 O          20.1775   71.8484   -5.9553 O.3     1  UNL1       -0.2858
     29 C          19.0713   72.6587   -6.3547 C.3     1  UNL1        0.2704
     30 C          17.7714   72.0304   -5.8499 C.3     1  UNL1        0.1967
     31 C          17.6433   70.6176   -6.4276 C.3     1  UNL1        0.1715
     32 C          17.7802   70.6973   -7.9523 C.3     1  UNL1        0.1694
     33 C          19.0814   71.4255   -8.2978 C.3     1  UNL1        0.1761
     34 O          17.7939   71.9654   -4.4229 O.3     1  UNL1       -0.3775
     35 O          16.3670   70.0729   -6.0855 O.3     1  UNL1       -0.3794
     36 O          16.6687   71.4114   -8.4951 O.3     1  UNL1       -0.3794
     37 O          19.0428   72.7533   -7.7770 O.3     1  UNL1       -0.3258
     38 H          17.8826   72.8738   -4.1036 H       1  UNL1        0.2106
     39 H          16.3207   70.0528   -5.1213 H       1  UNL1        0.2105
     40 H          15.8736   70.9211   -8.2485 H       1  UNL1        0.2105
     41 C          19.2449   71.4803   -9.8184 C.3     1  UNL1        0.1693
     42 O          18.6621   70.3136  -10.4017 O.3     1  UNL1       -0.3794
     43 H          18.7854   70.3875  -11.3580 H       1  UNL1        0.2105
@<TRIPOS>BOND
     1    15    16   ar
     2    15    20   ar
     3    15     6    1
     4    16    17   ar
     5    16    21    2
     6    17    18   ar
     7    17    23    1
     8    18    19   ar
     9    18    22    2
    10    19    20   ar
    11     6     7    1
    12     6    11    1
    13     7     8    1
    14     7     9    1
    15     8    13    1
    16     9    10    1
    17     9    12    1
    18    10    11    1
    19    10     5    1
    20    12    14    1
    21     5     4    1
    22     4     1    1
    23     1     2    2
    24     1     3    1
    25     1    24    1
    26    24    25    1
    27    25    26    2
    28    25    27    1
    29    25    28    1
    30    28    29    1
    31    29    30    1
    32    29    37    1
    33    30    31    1
    34    30    34    1
    35    31    32    1
    36    31    35    1
    37    32    33    1
    38    32    36    1
    39    33    41    1
    40    33    37    1
    41    41    42    1
    42    34    38    1
    43    35    39    1
    44    36    40    1
    45    42    43    1
@<TRIPOS>MOLECULE
GDU
 43 45 0 0 0
SMALL
GASTEIGER

@<TRIPOS>ATOM
      1 P          18.9274   70.9673   -2.8459 P.3     1  UNL1        0.2189
      2 O          18.8907   72.0234   -1.8102 O.2     1  UNL1       -0.5170
      3 O          18.9630   69.5218   -2.1373 O.3     1  UNL1       -0.4371
      4 O          17.6177   71.0784   -3.7728 O.3     1  UNL1       -0.3112
      5 C          16.9434   72.2794   -3.3941 C.3     1  UNL1        0.1811
      6 C          17.4303   73.2394   -6.8246 C.3     1  UNL1        0.2383
      7 C          15.9115   72.9500   -6.7134 C.3     1  UNL1        0.1895
      8 O          15.1687   73.7682   -7.6200 O.3     1  UNL1       -0.3779
      9 C          15.6129   73.3421   -5.2429 C.3     1  UNL1        0.1713
     10 C          16.9877   73.2781   -4.5519 C.3     1  UNL1        0.1764
     11 O          17.9439   72.8445   -5.5347 O.3     1  UNL1       -0.3308
     12 O          15.0738   74.6638   -5.1779 O.3     1  UNL1       -0.3794
     13 H          14.2361   73.5400   -7.5016 H       1  UNL1        0.2106
     14 H          14.2458   74.6535   -5.6768 H       1  UNL1        0.2105
     15 N          18.0343   72.4354   -7.8884 N.ar    1  UNL1       -0.2551
     16 C          18.2437   72.9810   -9.0994 C.ar    1  UNL1        0.3323
     17 N          18.8006   72.2646  -10.0937 N.ar    1  UNL1       -0.2743
     18 C          19.1498   70.9794   -9.8926 C.ar    1  UNL1        0.2626
     19 C          18.9298   70.3897   -8.6237 C.ar    1  UNL1        0.0795
     20 C          18.3736   71.1320   -7.6429 C.ar    1  UNL1        0.0869
     21 O          17.9344   74.1394   -9.2957 O.2     1  UNL1       -0.2464
     22 O          19.6496   70.3287  -10.7934 O.2     1  UNL1       -0.2670
     23 H          18.9485   72.6758  -10.9602 H       1  UNL1        0.1734
     24 O          20.2453   71.1516   -3.7524 O.3     1  UNL1       -0.2703
     25 P          21.5116   70.9031   -2.7909 P.3     1  UNL1        0.2208
     26 O          21.6115   69.4623   -2.4696 O.2     1  UNL1       -0.5170
     27 O          22.8555   71.3799   -3.5397 O.3     1  UNL1       -0.4371
     28 O          21.3284   71.7456   -1.4319 O.3     1  UNL1       -0.2858
     29 C          22.5333   71.5895   -0.6813 C.3     1  UNL1        0.2704
     30 C          22.1966   71.0869    0.7235 C.3     1  UNL1        0.1967
     31 C          21.2628   72.0935    1.4027 C.3     1  UNL1        0.1715
     32 C          21.9121   73.4808    1.3445 C.3     1  UNL1        0.1694
     33 C          22.2689   73.8028   -0.1088 C.3     1  UNL1        0.1761
     34 O          21.5498   69.8161    0.6349 O.3     1  UNL1       -0.3775
     35 O          21.0569   71.7139    2.7650 O.3     1  UNL1       -0.3794
     36 O          23.0950   73.4887    2.1449 O.3     1  UNL1       -0.3794
     37 O          23.2054   72.8441   -0.5984 O.3     1  UNL1       -0.3258
     38 H          22.1694   69.2177    0.1957 H       1  UNL1        0.2106
     39 H          20.6596   70.8339    2.7534 H       1  UNL1        0.2105
     40 H          22.8237   73.2760    3.0473 H       1  UNL1        0.2105
     41 C          22.8869   75.2009   -0.1827 C.3     1  UNL1        0.1693
     42 O          23.9164   75.2139   -1.1731 O.3     1  UNL1       -0.3794
     43 H          24.2786   76.1105   -1.1885 H       1  UNL1        0.2105
@<TRIPOS>BOND
     1    15    16   ar
     2    15    20   ar
     3    15     6    1
     4    16    17   ar
     5    16    21    2
     6    17    18   ar
     7    17    23    1
     8    18    19   ar
     9    18    22    2
    10    19    20   ar
    11     6     7    1
    12     6    11    1
    13     7     8    1
    14     7     9    1
    15     8    13    1
    16     9    10    1
    17     9    12    1
    18    10    11    1
    19    10     5    1
    20    12    14    1
    21     5     4    1
    22     4     1    1
    23     1     2    2
    24     1     3    1
    25     1    24    1
    26    24    25    1
    27    25    26    2
    28    25    27    1
    29    25    28    1
    30    28    29    1
    31    29    30    1
    32    29    37    1
    33    30    31    1
    34    30    34    1
    35    31    32    1
    36    31    35    1
    37    32    33    1
    38    32    36    1
    39    33    41    1
    40    33    37    1
    41    41    42    1
    42    34    38    1
    43    35    39    1
    44    36    40    1
    45    42    43    1
@<TRIPOS>MOLECULE
GDU
 43 45 0 0 0
SMALL
GASTEIGER

@<TRIPOS>ATOM
      1 P          20.7052   70.7042   -2.6097 P.3     1  UNL1        0.2189
      2 O          21.7753   69.9783   -3.3291 O.2     1  UNL1       -0.5170
      3 O          19.8847   69.6722   -1.6852 O.3     1  UNL1       -0.4371
      4 O          21.3586   71.8483   -1.6873 O.3     1  UNL1       -0.3112
      5 C          20.6495   73.0573   -1.9630 C.3     1  UNL1        0.1811
      6 C          22.2376   74.6716    0.8297 C.3     1  UNL1        0.2383
      7 C          23.4072   74.0574    0.0187 C.3     1  UNL1        0.1895
      8 O          24.5916   74.8460    0.1548 O.3     1  UNL1       -0.3779
      9 C          22.8645   74.1204   -1.4328 C.3     1  UNL1        0.1713
     10 C          21.3382   74.2268   -1.2574 C.3     1  UNL1        0.1764
     11 O          21.0623   74.1771    0.1532 O.3     1  UNL1       -0.3308
     12 O          23.3784   75.2697   -2.1088 O.3     1  UNL1       -0.3794
     13 H          25.2778   74.4116   -0.3709 H       1  UNL1        0.2106
     14 H          24.3400   75.1727   -2.1347 H       1  UNL1        0.2105
     15 N          22.2685   74.2058    2.2171 N.ar    1  UNL1       -0.2551
     16 C          21.8089   72.9787    2.5189 C.ar    1  UNL1        0.3323
     17 N          21.8293   72.5249    3.7860 N.ar    1  UNL1       -0.2743
     18 C          22.3042   73.3014    4.7788 C.ar    1  UNL1        0.2626
     19 C          22.7863   74.5985    4.4766 C.ar    1  UNL1        0.0795
     20 C          22.7583   75.0271    3.1967 C.ar    1  UNL1        0.0869
     21 O          21.3779   72.2665    1.6339 O.2     1  UNL1       -0.2464
     22 O          22.3186   72.8934    5.9267 O.2     1  UNL1       -0.2670
     23 H          21.4974   71.6349    3.9851 H       1  UNL1        0.1734
     24 O          19.7052   71.3789   -3.6762 O.3     1  UNL1       -0.2703
     25 P          19.0702   70.1809   -4.5432 P.3     1  UNL1        0.2208
     26 O          19.5741   68.8852   -4.0371 O.2     1  UNL1       -0.5170
     27 O          17.4651   70.2188   -4.4155 O.3     1  UNL1       -0.4371
     28 O          19.4886   70.3543   -6.0875 O.3     1  UNL1       -0.2858
     29 C          18.7234   71.4436   -6.6050 C.3     1  UNL1        0.2704
     30 C          17.9314   70.9744   -7.8265 C.3     1  UNL1        0.1967
     31 C          18.9087   70.4499   -8.8830 C.3     1  UNL1        0.1715
     32 C          19.9568   71.5332   -9.1618 C.3     1  UNL1        0.1694
     33 C          20.5970   71.9588   -7.8381 C.3     1  UNL1        0.1761
     34 O          17.0336   69.9313   -7.4431 O.3     1  UNL1       -0.3775
     35 O          18.1983   70.1451  -10.0850 O.3     1  UNL1       -0.3794
     36 O          19.3288   72.6583   -9.7779 O.3     1  UNL1       -0.3794
     37 O          19.6005   72.5048   -6.9751 O.3     1  UNL1       -0.3258
     38 H          16.4434   70.3033   -6.7736 H       1  UNL1        0.2106
     39 H          17.5445   69.4711   -9.8604 H       1  UNL1        0.2105
     40 H          18.9357   72.3429  -10.6021 H       1  UNL1        0.2105
     41 C          21.6696   73.0161   -8.1091 C.3     1  UNL1        0.1693
     42 O          22.8290   72.7290   -7.3252 O.3     1  UNL1       -0.3794
     43 H          23.4794   73.4163   -7.5253 H       1  UNL1        0.2105
@<TRIPOS>BOND
     1    15    16   ar
     2    15    20   ar
     3    15     6    1
     4    16    17   ar
     5    16    21    2
     6    17    18   ar
     7    17    23    1
     8    18    19   ar
     9    18    22    2
    10    19    20   ar
    11     6     7    1
    12     6    11    1
    13     7     8    1
    14     7     9    1
    15     8    13    1
    16     9    10    1
    17     9    12    1
    18    10    11    1
    19    10     5    1
    20    12    14    1
    21     5     4    1
    22     4     1    1
    23     1     2    2
    24     1     3    1
    25     1    24    1
    26    24    25    1
    27    25    26    2
    28    25    27    1
    29    25    28    1
    30    28    29    1
    31    29    30    1
    32    29    37    1
    33    30    31    1
    34    30    34    1
    35    31    32    1
    36    31    35    1
    37    32    33    1
    38    32    36    1
    39    33    41    1
    40    33    37    1
    41    41    42    1
    42    34    38    1
    43    35    39    1
    44    36    40    1
    45    42    43    1
@<TRIPOS>MOLECULE
GDU
 43 45 0 0 0
SMALL
GASTEIGER

@<TRIPOS>ATOM
      1 P          21.7669   72.8679   -4.3966 P.3     1  UNL1        0.2189
      2 O          23.2019   72.5875   -4.6239 O.2     1  UNL1       -0.5170
      3 O          21.6116   73.9346   -3.2003 O.3     1  UNL1       -0.4371
      4 O          21.1179   73.4696   -5.7396 O.3     1  UNL1       -0.3112
      5 C          21.4858   72.5928   -6.8057 C.3     1  UNL1        0.1811
      6 C          18.1637   71.9491   -8.0207 C.3     1  UNL1        0.2383
      7 C          19.0721   71.7843   -9.2659 C.3     1  UNL1        0.1895
      8 O          18.5259   70.8230  -10.1719 O.3     1  UNL1       -0.3779
      9 C          20.3922   71.2654   -8.6385 C.3     1  UNL1        0.1713
     10 C          20.2996   71.6954   -7.1627 C.3     1  UNL1        0.1764
     11 O          19.0702   72.4243   -7.0028 O.3     1  UNL1       -0.3308
     12 O          20.4720   69.8429   -8.7480 O.3     1  UNL1       -0.3794
     13 H          19.1355   70.7682  -10.9211 H       1  UNL1        0.2106
     14 H          20.4668   69.6339   -9.6920 H       1  UNL1        0.2105
     15 N          17.1109   72.9341   -8.2743 N.ar    1  UNL1       -0.2551
     16 C          15.9668   72.8838   -7.5696 C.ar    1  UNL1        0.3323
     17 N          14.9845   73.7796   -7.7808 N.ar    1  UNL1       -0.2743
     18 C          15.1293   74.7401   -8.7139 C.ar    1  UNL1        0.2626
     19 C          16.3268   74.8018   -9.4678 C.ar    1  UNL1        0.0795
     20 C          17.2976   73.8936   -9.2328 C.ar    1  UNL1        0.0869
     21 O          15.8219   72.0233   -6.7242 O.2     1  UNL1       -0.2464
     22 O          14.2389   75.5485   -8.9091 O.2     1  UNL1       -0.2670
     23 H          14.1671   73.7309   -7.2600 H       1  UNL1        0.1734
     24 O          21.0109   71.5032   -3.9984 O.3     1  UNL1       -0.2703
     25 P          21.8137   70.8707   -2.7552 P.3     1  UNL1        0.2208
     26 O          21.3275   69.4964   -2.5022 O.2     1  UNL1       -0.5170
     27 O          23.3868   70.8283   -3.0982 O.3     1  UNL1       -0.4371
     28 O          21.5755   71.7749   -1.4453 O.3     1  UNL1       -0.2858
     29 C          22.7285   71.6175   -0.6173 C.3     1  UNL1        0.2704
     30 C          22.3009   71.1046    0.7587 C.3     1  UNL1        0.1967
     31 C          21.3205   72.1037    1.3808 C.3     1  UNL1        0.1715
     32 C          21.9674   73.4934    1.3748 C.3     1  UNL1        0.1694
     33 C          22.4188   73.8262   -0.0494 C.3     1  UNL1        0.1761
     34 O          21.6659   69.8324    0.6192 O.3     1  UNL1       -0.3775
     35 O          21.0258   71.7144    2.7240 O.3     1  UNL1       -0.3794
     36 O          23.0944   73.4996    2.2522 O.3     1  UNL1       -0.3794
     37 O          23.3891   72.8736   -0.4818 O.3     1  UNL1       -0.3258
     38 H          22.3155   69.2388    0.2183 H       1  UNL1        0.2106
     39 H          20.6333   70.8334    2.6803 H       1  UNL1        0.2105
     40 H          22.7645   73.2800    3.1332 H       1  UNL1        0.2105
     41 C          23.0354   75.2266   -0.0730 C.3     1  UNL1        0.1693
     42 O          23.3235   75.5966   -1.4225 O.3     1  UNL1       -0.3794
     43 H          23.7089   76.4831   -1.3935 H       1  UNL1        0.2105
@<TRIPOS>BOND
     1    15    16   ar
     2    15    20   ar
     3    15     6    1
     4    16    17   ar
     5    16    21    2
     6    17    18   ar
     7    17    23    1
     8    18    19   ar
     9    18    22    2
    10    19    20   ar
    11     6     7    1
    12     6    11    1
    13     7     8    1
    14     7     9    1
    15     8    13    1
    16     9    10    1
    17     9    12    1
    18    10    11    1
    19    10     5    1
    20    12    14    1
    21     5     4    1
    22     4     1    1
    23     1     2    2
    24     1     3    1
    25     1    24    1
    26    24    25    1
    27    25    26    2
    28    25    27    1
    29    25    28    1
    30    28    29    1
    31    29    30    1
    32    29    37    1
    33    30    31    1
    34    30    34    1
    35    31    32    1
    36    31    35    1
    37    32    33    1
    38    32    36    1
    39    33    41    1
    40    33    37    1
    41    41    42    1
    42    34    38    1
    43    35    39    1
    44    36    40    1
    45    42    43    1
@<TRIPOS>MOLECULE
GDU
 43 45 0 0 0
SMALL
GASTEIGER

@<TRIPOS>ATOM
      1 P          22.3070   74.1606   -5.5362 P.3     1  UNL1        0.2189
      2 O          23.5621   74.9442   -5.5201 O.2     1  UNL1       -0.5170
      3 O          21.1277   75.0495   -6.1782 O.3     1  UNL1       -0.4371
      4 O          22.5158   72.8302   -6.4156 O.3     1  UNL1       -0.3112
      5 C          21.7136   72.9792   -7.5882 C.3     1  UNL1        0.1811
      6 C          18.2609   72.0607   -7.9910 C.3     1  UNL1        0.2383
      7 C          18.9310   71.6506   -9.3273 C.3     1  UNL1        0.1895
      8 O          18.2760   70.5162   -9.8992 O.3     1  UNL1       -0.3779
      9 C          20.3685   71.2879   -8.8719 C.3     1  UNL1        0.1713
     10 C          20.5284   72.0142   -7.5234 C.3     1  UNL1        0.1764
     11 O          19.3146   72.7469   -7.2823 O.3     1  UNL1       -0.3308
     12 O          20.4981   69.8747   -8.7050 O.3     1  UNL1       -0.3794
     13 H          18.7388   70.3135  -10.7242 H       1  UNL1        0.2106
     14 H          20.3293   69.4740   -9.5686 H       1  UNL1        0.2105
     15 N          17.1313   72.9599   -8.2326 N.ar    1  UNL1       -0.2551
     16 C          17.1340   73.7582   -9.3147 C.ar    1  UNL1        0.3323
     17 N          16.1062   74.5915   -9.5618 N.ar    1  UNL1       -0.2743
     18 C          15.0573   74.6462   -8.7187 C.ar    1  UNL1        0.2626
     19 C          15.0435   73.8153   -7.5717 C.ar    1  UNL1        0.0795
     20 C          16.0851   72.9857   -7.3500 C.ar    1  UNL1        0.0869
     21 O          18.0731   73.7195  -10.0846 O.2     1  UNL1       -0.2464
     22 O          14.1288   75.4037   -8.9390 O.2     1  UNL1       -0.2670
     23 H          16.1229   75.1575  -10.3500 H       1  UNL1        0.1734
     24 O          21.9106   73.7530   -4.0298 O.3     1  UNL1       -0.2703
     25 P          23.2043   73.0491   -3.3811 P.3     1  UNL1        0.2208
     26 O          23.2170   71.6139   -3.7404 O.2     1  UNL1       -0.5170
     27 O          24.5381   73.7547   -3.9446 O.3     1  UNL1       -0.4371
     28 O          23.1535   73.2020   -1.7798 O.3     1  UNL1       -0.2858
     29 C          21.8123   72.9196   -1.3784 C.3     1  UNL1        0.2704
     30 C          21.3792   73.9227   -0.3081 C.3     1  UNL1        0.1967
     31 C          22.3337   73.8214    0.8856 C.3     1  UNL1        0.1715
     32 C          22.3898   72.3603    1.3456 C.3     1  UNL1        0.1694
     33 C          22.7485   71.4753    0.1494 C.3     1  UNL1        0.1761
     34 O          21.4222   75.2454   -0.8464 O.3     1  UNL1       -0.3775
     35 O          21.8578   74.6451    1.9522 O.3     1  UNL1       -0.3794
     36 O          21.1174   71.9744    1.8671 O.3     1  UNL1       -0.3794
     37 O          21.7434   71.5947   -0.8563 O.3     1  UNL1       -0.3258
     38 H          20.8136   75.2609   -1.5976 H       1  UNL1        0.2106
     39 H          21.8276   75.5495    1.6152 H       1  UNL1        0.2105
     40 H          20.9309   72.5603    2.6123 H       1  UNL1        0.2105
     41 C          22.8408   70.0173    0.6053 C.3     1  UNL1        0.1693
     42 O          21.5546   69.4043    0.5013 O.3     1  UNL1       -0.3794
     43 H          21.6562   68.4889    0.7964 H       1  UNL1        0.2105
@<TRIPOS>BOND
     1    15    16   ar
     2    15    20   ar
     3    15     6    1
     4    16    17   ar
     5    16    21    2
     6    17    18   ar
     7    17    23    1
     8    18    19   ar
     9    18    22    2
    10    19    20   ar
    11     6     7    1
    12     6    11    1
    13     7     8    1
    14     7     9    1
    15     8    13    1
    16     9    10    1
    17     9    12    1
    18    10    11    1
    19    10     5    1
    20    12    14    1
    21     5     4    1
    22     4     1    1
    23     1     2    2
    24     1     3    1
    25     1    24    1
    26    24    25    1
    27    25    26    2
    28    25    27    1
    29    25    28    1
    30    28    29    1
    31    29    30    1
    32    29    37    1
    33    30    31    1
    34    30    34    1
    35    31    32    1
    36    31    35    1
    37    32    33    1
    38    32    36    1
    39    33    41    1
    40    33    37    1
    41    41    42    1
    42    34    38    1
    43    35    39    1
    44    36    40    1
    45    42    43    1
@<TRIPOS>MOLECULE
GDU
 43 45 0 0 0
SMALL
GASTEIGER

@<TRIPOS>ATOM
      1 P          22.1687   74.0789   -5.6158 P.3     1  UNL1        0.2189
      2 O          23.3491   74.9678   -5.5383 O.2     1  UNL1       -0.5170
      3 O          20.9346   74.8814   -6.2684 O.3     1  UNL1       -0.4371
      4 O          22.5185   72.7998   -6.5259 O.3     1  UNL1       -0.3112
      5 C          21.9366   73.0336   -7.8093 C.3     1  UNL1        0.1811
      6 C          18.8910   71.2647   -7.0864 C.3     1  UNL1        0.2383
      7 C          18.4571   72.4184   -8.0264 C.3     1  UNL1        0.1895
      8 O          17.3316   72.0341   -8.8194 O.3     1  UNL1       -0.3779
      9 C          19.7173   72.6087   -8.9102 C.3     1  UNL1        0.1713
     10 C          20.8547   71.9863   -8.0792 C.3     1  UNL1        0.1764
     11 O          20.2856   71.5405   -6.8360 O.3     1  UNL1       -0.3308
     12 O          19.5637   71.9219  -10.1538 O.3     1  UNL1       -0.3794
     13 H          17.1129   72.7923   -9.3789 H       1  UNL1        0.2106
     14 H          18.8021   72.3168  -10.5997 H       1  UNL1        0.2105
     15 N          18.1265   71.2980   -5.8385 N.ar    1  UNL1       -0.2551
     16 C          17.7141   72.4770   -5.3404 C.ar    1  UNL1        0.3323
     17 N          17.0067   72.5351   -4.1967 N.ar    1  UNL1       -0.2743
     18 C          16.7076   71.4071   -3.5241 C.ar    1  UNL1        0.2626
     19 C          17.1405   70.1585   -4.0338 C.ar    1  UNL1        0.0795
     20 C          17.8448   70.1284   -5.1851 C.ar    1  UNL1        0.0869
     21 O          17.9759   73.5030   -5.9362 O.2     1  UNL1       -0.2464
     22 O          16.0715   71.4591   -2.4862 O.2     1  UNL1       -0.2670
     23 H          16.7134   73.3944   -3.8540 H       1  UNL1        0.1734
     24 O          21.7670   73.5917   -4.1347 O.3     1  UNL1       -0.2703
     25 P          23.0995   72.9868   -3.4649 P.3     1  UNL1        0.2208
     26 O          23.1858   71.5393   -3.7591 O.2     1  UNL1       -0.5170
     27 O          24.3911   73.7348   -4.0703 O.3     1  UNL1       -0.4371
     28 O          23.0495   73.2096   -1.8719 O.3     1  UNL1       -0.2858
     29 C          21.7250   72.8836   -1.4487 C.3     1  UNL1        0.2704
     30 C          21.2697   73.8838   -0.3848 C.3     1  UNL1        0.1967
     31 C          22.2431   73.8323    0.7969 C.3     1  UNL1        0.1715
     32 C          22.3586   72.3801    1.2737 C.3     1  UNL1        0.1694
     33 C          22.7335   71.4937    0.0834 C.3     1  UNL1        0.1761
     34 O          21.2573   75.2003   -0.9396 O.3     1  UNL1       -0.3775
     35 O          21.7516   74.6516    1.8598 O.3     1  UNL1       -0.3794
     36 O          21.1082   71.9548    1.8173 O.3     1  UNL1       -0.3794
     37 O          21.7114   71.5638   -0.9097 O.3     1  UNL1       -0.3258
     38 H          20.6386   75.1841   -1.6825 H       1  UNL1        0.2106
     39 H          21.6839   75.5499    1.5123 H       1  UNL1        0.2105
     40 H          20.9103   72.5429    2.5577 H       1  UNL1        0.2105
     41 C          22.8851   70.0460    0.5557 C.3     1  UNL1        0.1693
     42 O          21.6172   69.3905    0.4940 O.3     1  UNL1       -0.3794
     43 H          21.7561   68.4831    0.7982 H       1  UNL1        0.2105
@<TRIPOS>BOND
     1    15    16   ar
     2    15    20   ar
     3    15     6    1
     4    16    17   ar
     5    16    21    2
     6    17    18   ar
     7    17    23    1
     8    18    19   ar
     9    18    22    2
    10    19    20   ar
    11     6     7    1
    12     6    11    1
    13     7     8    1
    14     7     9    1
    15     8    13    1
    16     9    10    1
    17     9    12    1
    18    10    11    1
    19    10     5    1
    20    12    14    1
    21     5     4    1
    22     4     1    1
    23     1     2    2
    24     1     3    1
    25     1    24    1
    26    24    25    1
    27    25    26    2
    28    25    27    1
    29    25    28    1
    30    28    29    1
    31    29    30    1
    32    29    37    1
    33    30    31    1
    34    30    34    1
    35    31    32    1
    36    31    35    1
    37    32    33    1
    38    32    36    1
    39    33    41    1
    40    33    37    1
    41    41    42    1
    42    34    38    1
    43    35    39    1
    44    36    40    1
    45    42    43    1
