@<TRIPOS>MOLECULE
*****
 43 45 0 0 0
SMALL
GASTEIGER

@<TRIPOS>ATOM
      1 P          22.8372   72.0411   -2.5337 P.3     1  UNL1        0.2189
      2 O          23.3097   73.3698   -1.7407 O.co2   1  UNL1       -0.4371
      3 O          23.5130   71.8173   -3.8545 O.2     1  UNL1       -0.5170
      4 O          21.2251   72.1703   -2.5822 O.3     1  UNL1       -0.3112
      5 C          20.5141   71.4058   -3.5402 C.3     1  UNL1        0.1811
      6 O          18.5758   72.2046   -4.7145 O.3     1  UNL1       -0.3308
      7 O          16.9622   70.9711   -2.5087 O.3     1  UNL1       -0.3794
      8 O          16.7427   69.1289   -4.5074 O.3     1  UNL1       -0.3779
      9 C          18.1723   70.5102   -3.1076 C.3     1  UNL1        0.1713
     10 C          17.8954   69.9460   -4.4855 C.3     1  UNL1        0.1895
     11 C          19.0301   71.7277   -3.4290 C.3     1  UNL1        0.1764
     12 C          17.7335   71.2078   -5.3160 C.3     1  UNL1        0.2383
     13 H          16.3980   70.2111   -2.2942 H       1  UNL1        0.2105
     14 H          16.8954   68.3395   -3.9649 H       1  UNL1        0.2106
     15 O          16.0144   70.3333   -7.3794 O.2     1  UNL1       -0.2464
     16 O          19.3850   70.5216  -10.5170 O.2     1  UNL1       -0.2670
     17 N          18.1353   71.0200   -6.6815 N.ar    1  UNL1       -0.2551
     18 N          17.6940   70.4280   -8.9401 N.ar    1  UNL1       -0.2743
     19 C          17.1945   70.5766   -7.6399 C.ar    1  UNL1        0.3323
     20 C          19.4494   71.2750   -7.0585 C.ar    1  UNL1        0.0869
     21 C          19.9102   71.1271   -8.3023 C.ar    1  UNL1        0.0795
     22 C          18.9916   70.6675   -9.3639 C.ar    1  UNL1        0.2626
     23 H          17.0567   70.1197   -9.6246 H       1  UNL1        0.1734
     24 O          23.0750   70.8665   -1.4488 O.3     1  UNL1       -0.2703
     25 P          22.3058   70.5244   -0.0689 P.3     1  UNL1        0.2208
     26 O          23.3340   69.5350    0.6936 O.co2   1  UNL1       -0.4371
     27 O          20.9273   69.9599   -0.2564 O.2     1  UNL1       -0.5170
     28 O          22.3568   71.8971    0.7784 O.3     1  UNL1       -0.2858
     29 O          21.3825   72.3715    2.8861 O.3     1  UNL1       -0.3258
     30 O          21.0004   76.0895    1.1308 O.3     1  UNL1       -0.3794
     31 O          22.9463   75.6943    3.2058 O.3     1  UNL1       -0.3794
     32 O          20.5884   73.6983   -0.4478 O.3     1  UNL1       -0.3775
     33 C          21.6319   74.8352    1.4016 C.3     1  UNL1        0.1715
     34 C          21.9175   74.7562    2.9026 C.3     1  UNL1        0.1694
     35 C          20.6998   73.7040    0.9714 C.3     1  UNL1        0.1967
     36 C          22.3477   73.3408    3.3109 C.3     1  UNL1        0.1761
     37 C          21.1937   72.3447    1.4699 C.3     1  UNL1        0.2704
     38 H          21.5873   76.8120    1.4012 H       1  UNL1        0.2105
     39 H          22.6622   76.5838    2.9426 H       1  UNL1        0.2105
     40 H          20.2746   74.5641   -0.7508 H       1  UNL1        0.2106
     41 O          22.1628   71.8682    5.1834 O.3     1  UNL1       -0.3794
     42 C          22.4852   73.1994    4.8252 C.3     1  UNL1        0.1693
     43 H          22.2463   71.7633    6.1445 H       1  UNL1        0.2105
@<TRIPOS>UNITY_ATOM_ATTR
2 1
charge -1
26 1
charge -1
@<TRIPOS>BOND
     1    25    28    1
     2    25    24    1
     3    25    26    1
     4    25    27    2
     5     1     4    1
     6     1    24    1
     7     1     2    1
     8     1     3    2
     9     6    11    1
    10     6    12    1
    11    29    36    1
    12    29    37    1
    13     7     9    1
    14     7    13    1
    15     8    10    1
    16     8    14    1
    17    28    37    1
    18     4     5    1
    19    30    33    1
    20    30    38    1
    21    31    34    1
    22    31    39    1
    23    32    35    1
    24    32    40    1
    25    41    42    1
    26    41    43    1
    27    15    19    2
    28    16    22    2
    29    17    12    1
    30    17    19   ar
    31    17    20   ar
    32    18    19   ar
    33    18    22   ar
    34    18    23    1
    35     9    10    1
    36     9    11    1
    37    10    12    1
    38    11     5    1
    39    33    34    1
    40    33    35    1
    41    34    36    1
    42    35    37    1
    43    36    42    1
    44    20    21   ar
    45    21    22   ar
@<TRIPOS>MOLECULE
*****
 43 45 0 0 0
SMALL
GASTEIGER

@<TRIPOS>ATOM
      1 P          22.8589   71.8473   -2.4447 P.3     1  UNL1        0.2189
      2 O          23.6642   73.2449   -2.5705 O.co2   1  UNL1       -0.4371
      3 O          23.4504   70.7035   -3.2148 O.2     1  UNL1       -0.5170
      4 O          21.3369   72.2402   -2.8281 O.3     1  UNL1       -0.3112
      5 C          20.5805   71.3317   -3.6094 C.3     1  UNL1        0.1811
      6 O          18.6299   72.1719   -4.7331 O.3     1  UNL1       -0.3308
      7 O          17.0433   70.9108   -2.5232 O.3     1  UNL1       -0.3794
      8 O          16.7702   69.1104   -4.5531 O.3     1  UNL1       -0.3779
      9 C          18.2380   70.4502   -3.1525 C.3     1  UNL1        0.1713
     10 C          17.9312   69.9158   -4.5359 C.3     1  UNL1        0.1895
     11 C          19.1020   71.6655   -3.4654 C.3     1  UNL1        0.1764
     12 C          17.7672   71.1952   -5.3387 C.3     1  UNL1        0.2383
     13 H          16.4755   70.1522   -2.3134 H       1  UNL1        0.2105
     14 H          16.9246   68.3091   -4.0289 H       1  UNL1        0.2106
     15 O          16.0003   70.3897   -7.3899 O.2     1  UNL1       -0.2464
     16 O          19.3196   70.5949  -10.5807 O.2     1  UNL1       -0.2670
     17 N          18.1429   71.0304   -6.7145 N.ar    1  UNL1       -0.2551
     18 N          17.6545   70.4927   -8.9770 N.ar    1  UNL1       -0.2743
     19 C          17.1793   70.6211   -7.6656 C.ar    1  UNL1        0.3323
     20 C          19.4540   71.2741   -7.1088 C.ar    1  UNL1        0.0869
     21 C          19.8914   71.1458   -8.3632 C.ar    1  UNL1        0.0795
     22 C          18.9481   70.7221   -9.4181 C.ar    1  UNL1        0.2626
     23 H          17.0011   70.2083   -9.6566 H       1  UNL1        0.1734
     24 O          22.7825   71.6145   -0.8469 O.3     1  UNL1       -0.2703
     25 P          21.9999   70.5029    0.0277 P.3     1  UNL1        0.2208
     26 O          23.1905   69.5492    0.5666 O.co2   1  UNL1       -0.4371
     27 O          20.9184   69.7799   -0.7218 O.2     1  UNL1       -0.5170
     28 O          21.4900   71.2977    1.3366 O.3     1  UNL1       -0.2858
     29 O          21.9623   73.5895    0.9614 O.3     1  UNL1       -0.3258
     30 O          20.3798   73.8563    4.7660 O.3     1  UNL1       -0.3794
     31 O          18.8528   74.8032    2.5256 O.3     1  UNL1       -0.3794
     32 O          22.0773   71.6198    4.0618 O.3     1  UNL1       -0.3775
     33 C          20.5042   73.3345    3.4402 C.3     1  UNL1        0.1715
     34 C          20.2362   74.4703    2.4508 C.3     1  UNL1        0.1694
     35 C          21.9150   72.7797    3.2525 C.3     1  UNL1        0.1967
     36 C          20.6102   74.0587    1.0205 C.3     1  UNL1        0.1761
     37 C          22.2011   72.4479    1.7869 C.3     1  UNL1        0.2704
     38 H          19.4861   74.2098    4.8919 H       1  UNL1        0.2105
     39 H          18.6296   75.0608    3.4339 H       1  UNL1        0.2105
     40 H          21.8938   71.8430    4.9871 H       1  UNL1        0.2106
     41 O          19.1540   75.6641    0.0149 O.3     1  UNL1       -0.3794
     42 C          20.5000   75.2261    0.0421 C.3     1  UNL1        0.1693
     43 H          19.0688   76.4071   -0.6035 H       1  UNL1        0.2105
@<TRIPOS>UNITY_ATOM_ATTR
2 1
charge -1
26 1
charge -1
@<TRIPOS>BOND
     1    25    28    1
     2    25    24    1
     3    25    26    1
     4    25    27    2
     5     1     4    1
     6     1    24    1
     7     1     2    1
     8     1     3    2
     9     6    11    1
    10     6    12    1
    11    29    36    1
    12    29    37    1
    13     7     9    1
    14     7    13    1
    15     8    10    1
    16     8    14    1
    17    28    37    1
    18     4     5    1
    19    30    33    1
    20    30    38    1
    21    31    34    1
    22    31    39    1
    23    32    35    1
    24    32    40    1
    25    41    42    1
    26    41    43    1
    27    15    19    2
    28    16    22    2
    29    17    12    1
    30    17    19   ar
    31    17    20   ar
    32    18    19   ar
    33    18    22   ar
    34    18    23    1
    35     9    10    1
    36     9    11    1
    37    10    12    1
    38    11     5    1
    39    33    34    1
    40    33    35    1
    41    34    36    1
    42    35    37    1
    43    36    42    1
    44    20    21   ar
    45    21    22   ar
@<TRIPOS>MOLECULE
*****
 43 45 0 0 0
SMALL
GASTEIGER

@<TRIPOS>ATOM
      1 P          22.7129   72.5067   -2.5789 P.3     1  UNL1        0.2189
      2 O          23.4792   73.8238   -3.1224 O.co2   1  UNL1       -0.4371
      3 O          23.3636   71.2025   -2.9355 O.2     1  UNL1       -0.5170
      4 O          21.1931   72.6991   -3.0996 O.3     1  UNL1       -0.3112
      5 C          20.5081   71.5721   -3.6179 C.3     1  UNL1        0.1811
      6 O          18.5189   72.2147   -4.8026 O.3     1  UNL1       -0.3308
      7 O          16.9947   70.9614   -2.5450 O.3     1  UNL1       -0.3794
      8 O          16.8739   69.0441   -4.4804 O.3     1  UNL1       -0.3779
      9 C          18.2266   70.5537   -3.1379 C.3     1  UNL1        0.1713
     10 C          17.9758   69.9285   -4.4943 C.3     1  UNL1        0.1895
     11 C          19.0083   71.8087   -3.5057 C.3     1  UNL1        0.1764
     12 C          17.7341   71.1502   -5.3645 C.3     1  UNL1        0.2383
     13 H          16.4780   70.1768   -2.3013 H       1  UNL1        0.2105
     14 H          17.0766   68.2836   -3.9135 H       1  UNL1        0.2106
     15 O          15.9626   70.5502   -7.4811 O.2     1  UNL1       -0.2464
     16 O          19.3980   70.3679  -10.5480 O.2     1  UNL1       -0.2670
     17 N          18.1384   70.9413   -6.7262 N.ar    1  UNL1       -0.2551
     18 N          17.6746   70.4601   -9.0065 N.ar    1  UNL1       -0.2743
     19 C          17.1697   70.6442   -7.7129 C.ar    1  UNL1        0.3323
     20 C          19.4824   71.0321   -7.0717 C.ar    1  UNL1        0.0869
     21 C          19.9478   70.8525   -8.3096 C.ar    1  UNL1        0.0795
     22 C          19.0013   70.5386   -9.3994 C.ar    1  UNL1        0.2626
     23 H          17.0181   70.2518   -9.7103 H       1  UNL1        0.1734
     24 O          22.5912   72.7860   -0.9914 O.3     1  UNL1       -0.2703
     25 P          21.3240   72.6967    0.0081 P.3     1  UNL1        0.2208
     26 O          21.3105   71.1410    0.4520 O.co2   1  UNL1       -0.4371
     27 O          20.0344   73.1817   -0.5884 O.2     1  UNL1       -0.5170
     28 O          21.7905   73.4942    1.3315 O.3     1  UNL1       -0.2858
     29 O          23.8104   73.6647    2.5593 O.3     1  UNL1       -0.3258
     30 O          21.1640   73.2315    5.6994 O.3     1  UNL1       -0.3794
     31 O          22.3787   75.7877    5.2111 O.3     1  UNL1       -0.3794
     32 O          20.7654   71.7292    3.2573 O.3     1  UNL1       -0.3775
     33 C          21.5940   73.6752    4.4096 C.3     1  UNL1        0.1715
     34 C          22.8145   74.5788    4.5955 C.3     1  UNL1        0.1694
     35 C          21.9503   72.4592    3.5565 C.3     1  UNL1        0.1967
     36 C          23.4924   74.8778    3.2516 C.3     1  UNL1        0.1761
     37 C          22.6636   72.8644    2.2654 C.3     1  UNL1        0.2704
     38 H          20.9358   73.9988    6.2459 H       1  UNL1        0.2105
     39 H          21.9520   75.5850    6.0585 H       1  UNL1        0.2105
     40 H          20.3232   71.4782    4.0828 H       1  UNL1        0.2106
     41 O          25.5874   75.4680    2.2658 O.3     1  UNL1       -0.3794
     42 C          24.8002   75.6460    3.4290 C.3     1  UNL1        0.1693
     43 H          26.4229   75.9517    2.3644 H       1  UNL1        0.2105
@<TRIPOS>UNITY_ATOM_ATTR
2 1
charge -1
26 1
charge -1
@<TRIPOS>BOND
     1    25    28    1
     2    25    24    1
     3    25    26    1
     4    25    27    2
     5     1     4    1
     6     1    24    1
     7     1     2    1
     8     1     3    2
     9     6    11    1
    10     6    12    1
    11    29    36    1
    12    29    37    1
    13     7     9    1
    14     7    13    1
    15     8    10    1
    16     8    14    1
    17    28    37    1
    18     4     5    1
    19    30    33    1
    20    30    38    1
    21    31    34    1
    22    31    39    1
    23    32    35    1
    24    32    40    1
    25    41    42    1
    26    41    43    1
    27    15    19    2
    28    16    22    2
    29    17    12    1
    30    17    19   ar
    31    17    20   ar
    32    18    19   ar
    33    18    22   ar
    34    18    23    1
    35     9    10    1
    36     9    11    1
    37    10    12    1
    38    11     5    1
    39    33    34    1
    40    33    35    1
    41    34    36    1
    42    35    37    1
    43    36    42    1
    44    20    21   ar
    45    21    22   ar
@<TRIPOS>MOLECULE
*****
 43 45 0 0 0
SMALL
GASTEIGER

@<TRIPOS>ATOM
      1 P          22.9193   72.0663   -3.0831 P.3     1  UNL1        0.2189
      2 O          23.6651   70.6405   -3.2513 O.co2   1  UNL1       -0.4371
      3 O          22.7606   72.5354   -1.6667 O.2     1  UNL1       -0.5170
      4 O          21.5474   71.8884   -3.9223 O.3     1  UNL1       -0.3112
      5 C          20.7001   70.7966   -3.6093 C.3     1  UNL1        0.1811
      6 O          18.8632   71.8999   -4.6965 O.3     1  UNL1       -0.3308
      7 O          17.1428   70.7863   -2.5076 O.3     1  UNL1       -0.3794
      8 O          16.6409   69.0872   -4.5808 O.3     1  UNL1       -0.3779
      9 C          18.2688   70.1988   -3.1574 C.3     1  UNL1        0.1713
     10 C          17.8924   69.7427   -4.5517 C.3     1  UNL1        0.1895
     11 C          19.2747   71.3061   -3.4457 C.3     1  UNL1        0.1764
     12 C          17.8840   71.0532   -5.3203 C.3     1  UNL1        0.2383
     13 H          16.4866   70.0982   -2.3131 H       1  UNL1        0.2105
     14 H          16.6976   68.2595   -4.0784 H       1  UNL1        0.2106
     15 O          16.0263   70.4941   -7.3732 O.2     1  UNL1       -0.2464
     16 O          19.3278   70.4056  -10.5877 O.2     1  UNL1       -0.2670
     17 N          18.2306   70.8795   -6.7027 N.ar    1  UNL1       -0.2551
     18 N          17.6717   70.4507   -8.9721 N.ar    1  UNL1       -0.2743
     19 C          17.2218   70.6006   -7.6541 C.ar    1  UNL1        0.3323
     20 C          19.5581   70.9864   -7.1030 C.ar    1  UNL1        0.0869
     21 C          19.9708   70.8394   -8.3637 C.ar    1  UNL1        0.0795
     22 C          18.9799   70.5463   -9.4194 C.ar    1  UNL1        0.2626
     23 H          16.9866   70.2555   -9.6521 H       1  UNL1        0.1734
     24 O          23.7952   73.0477   -4.0227 O.3     1  UNL1       -0.2703
     25 P          23.8844   74.6607   -4.0810 P.3     1  UNL1        0.2208
     26 O          25.4733   74.9483   -3.9799 O.co2   1  UNL1       -0.4371
     27 O          23.0608   75.3606   -3.0391 O.2     1  UNL1       -0.5170
     28 O          23.4982   75.0364   -5.6024 O.3     1  UNL1       -0.2858
     29 O          21.5718   76.0552   -6.5340 O.3     1  UNL1       -0.3258
     30 O          22.3158   73.2454   -9.4669 O.3     1  UNL1       -0.3794
     31 O          22.8477   76.0183   -9.9923 O.3     1  UNL1       -0.3794
     32 O          22.7174   72.5664   -6.6817 O.3     1  UNL1       -0.3775
     33 C          22.6609   74.1953   -8.4551 C.3     1  UNL1        0.1715
     34 C          22.1032   75.5591   -8.8674 C.3     1  UNL1        0.1694
     35 C          22.0587   73.7482   -7.1244 C.3     1  UNL1        0.1967
     36 C          22.1990   76.5681   -7.7152 C.3     1  UNL1        0.1761
     37 C          22.1627   74.8431   -6.0611 C.3     1  UNL1        0.2704
     38 H          22.6955   73.5231  -10.3144 H       1  UNL1        0.2105
     39 H          22.7793   75.3719  -10.7125 H       1  UNL1        0.2105
     40 H          22.6442   71.8810   -7.3634 H       1  UNL1        0.2106
     41 O          20.5745   77.6534   -9.0906 O.3     1  UNL1       -0.3794
     42 C          21.5066   77.8872   -8.0510 C.3     1  UNL1        0.1693
     43 H          20.1259   78.4842   -9.3147 H       1  UNL1        0.2105
@<TRIPOS>UNITY_ATOM_ATTR
2 1
charge -1
26 1
charge -1
@<TRIPOS>BOND
     1    25    28    1
     2    25    24    1
     3    25    26    1
     4    25    27    2
     5     1     4    1
     6     1    24    1
     7     1     2    1
     8     1     3    2
     9     6    11    1
    10     6    12    1
    11    29    36    1
    12    29    37    1
    13     7     9    1
    14     7    13    1
    15     8    10    1
    16     8    14    1
    17    28    37    1
    18     4     5    1
    19    30    33    1
    20    30    38    1
    21    31    34    1
    22    31    39    1
    23    32    35    1
    24    32    40    1
    25    41    42    1
    26    41    43    1
    27    15    19    2
    28    16    22    2
    29    17    12    1
    30    17    19   ar
    31    17    20   ar
    32    18    19   ar
    33    18    22   ar
    34    18    23    1
    35     9    10    1
    36     9    11    1
    37    10    12    1
    38    11     5    1
    39    33    34    1
    40    33    35    1
    41    34    36    1
    42    35    37    1
    43    36    42    1
    44    20    21   ar
    45    21    22   ar
@<TRIPOS>MOLECULE
*****
 43 45 0 0 0
SMALL
GASTEIGER

@<TRIPOS>ATOM
      1 P          21.6873   70.2763   -1.0631 P.3     1  UNL1        0.2189
      2 O          23.2155   70.5331   -1.5280 O.co2   1  UNL1       -0.4371
      3 O          21.5352   69.5590    0.2460 O.2     1  UNL1       -0.5170
      4 O          21.0080   69.5553   -2.3424 O.3     1  UNL1       -0.3112
      5 C          20.7247   70.3388   -3.4886 C.3     1  UNL1        0.1811
      6 O          19.0353   71.6831   -4.5434 O.3     1  UNL1       -0.3308
      7 O          17.1718   70.6715   -2.4234 O.3     1  UNL1       -0.3794
      8 O          16.5177   69.1291   -4.5751 O.3     1  UNL1       -0.3779
      9 C          18.2362   69.9925   -3.0877 C.3     1  UNL1        0.1713
     10 C          17.8327   69.6413   -4.5045 C.3     1  UNL1        0.1895
     11 C          19.3613   70.9942   -3.3164 C.3     1  UNL1        0.1764
     12 C          17.9788   70.9768   -5.2140 C.3     1  UNL1        0.2383
     13 H          16.4415   70.0518   -2.2662 H       1  UNL1        0.2105
     14 H          16.4762   68.2792   -4.1096 H       1  UNL1        0.2106
     15 O          16.1204   70.4468   -7.2739 O.2     1  UNL1       -0.2464
     16 O          19.4193   70.4171  -10.4923 O.2     1  UNL1       -0.2670
     17 N          18.3245   70.8261   -6.5993 N.ar    1  UNL1       -0.2551
     18 N          17.7645   70.4326   -8.8748 N.ar    1  UNL1       -0.2743
     19 C          17.3155   70.5604   -7.5541 C.ar    1  UNL1        0.3323
     20 C          19.6514   70.9423   -6.9990 C.ar    1  UNL1        0.0869
     21 C          20.0633   70.8165   -8.2622 C.ar    1  UNL1        0.0795
     22 C          19.0721   70.5383   -9.3216 C.ar    1  UNL1        0.2626
     23 H          17.0792   70.2469   -9.5572 H       1  UNL1        0.1734
     24 O          21.0432   71.7585   -1.0968 O.3     1  UNL1       -0.2703
     25 P          21.5374   73.1461   -0.4311 P.3     1  UNL1        0.2208
     26 O          22.8912   72.7228    0.3471 O.co2   1  UNL1       -0.4371
     27 O          20.5085   73.8140    0.4345 O.2     1  UNL1       -0.5170
     28 O          22.0451   74.0386   -1.6764 O.3     1  UNL1       -0.2858
     29 O          22.6917   73.2461   -3.8142 O.3     1  UNL1       -0.3258
     30 O          25.1542   76.5512   -3.5631 O.3     1  UNL1       -0.3794
     31 O          22.8946   76.5980   -5.3350 O.3     1  UNL1       -0.3794
     32 O          24.6640   74.9340   -1.2129 O.3     1  UNL1       -0.3775
     33 C          23.9574   75.7987   -3.3470 C.3     1  UNL1        0.1715
     34 C          23.3806   75.4130   -4.7106 C.3     1  UNL1        0.1694
     35 C          24.2928   74.5506   -2.5326 C.3     1  UNL1        0.1967
     36 C          22.2511   74.3846   -4.5635 C.3     1  UNL1        0.1761
     37 C          23.1182   73.5716   -2.4898 C.3     1  UNL1        0.2704
     38 H          24.9481   77.3454   -4.0793 H       1  UNL1        0.2105
     39 H          23.6174   77.2392   -5.4215 H       1  UNL1        0.2105
     40 H          25.4086   75.5534   -1.2536 H       1  UNL1        0.2106
     41 O          22.7037   72.9197   -6.3960 O.3     1  UNL1       -0.3794
     42 C          21.7681   73.8681   -5.9170 C.3     1  UNL1        0.1693
     43 H          22.4091   72.5820   -7.2568 H       1  UNL1        0.2105
@<TRIPOS>UNITY_ATOM_ATTR
2 1
charge -1
26 1
charge -1
@<TRIPOS>BOND
     1    25    28    1
     2    25    24    1
     3    25    26    1
     4    25    27    2
     5     1     4    1
     6     1    24    1
     7     1     2    1
     8     1     3    2
     9     6    11    1
    10     6    12    1
    11    29    36    1
    12    29    37    1
    13     7     9    1
    14     7    13    1
    15     8    10    1
    16     8    14    1
    17    28    37    1
    18     4     5    1
    19    30    33    1
    20    30    38    1
    21    31    34    1
    22    31    39    1
    23    32    35    1
    24    32    40    1
    25    41    42    1
    26    41    43    1
    27    15    19    2
    28    16    22    2
    29    17    12    1
    30    17    19   ar
    31    17    20   ar
    32    18    19   ar
    33    18    22   ar
    34    18    23    1
    35     9    10    1
    36     9    11    1
    37    10    12    1
    38    11     5    1
    39    33    34    1
    40    33    35    1
    41    34    36    1
    42    35    37    1
    43    36    42    1
    44    20    21   ar
    45    21    22   ar
@<TRIPOS>MOLECULE
*****
 43 45 0 0 0
SMALL
GASTEIGER

@<TRIPOS>ATOM
      1 P          22.5960   71.6604   -1.9708 P.3     1  UNL1        0.2189
      2 O          22.9762   70.7036   -3.2188 O.co2   1  UNL1       -0.4371
      3 O          22.9489   71.1105   -0.6201 O.2     1  UNL1       -0.5170
      4 O          21.0313   71.9999   -2.2043 O.3     1  UNL1       -0.3112
      5 C          20.4089   71.5378   -3.3903 C.3     1  UNL1        0.1811
      6 O          18.4820   72.2916   -4.6121 O.3     1  UNL1       -0.3308
      7 O          16.8441   71.0396   -2.4349 O.3     1  UNL1       -0.3794
      8 O          16.7049   69.1820   -4.4265 O.3     1  UNL1       -0.3779
      9 C          18.0759   70.5991   -3.0040 C.3     1  UNL1        0.1713
     10 C          17.8407   70.0215   -4.3841 C.3     1  UNL1        0.1895
     11 C          18.9168   71.8312   -3.3139 C.3     1  UNL1        0.1764
     12 C          17.6728   71.2751   -5.2259 C.3     1  UNL1        0.2383
     13 H          16.2901   70.2700   -2.2282 H       1  UNL1        0.2105
     14 H          16.8608   68.3988   -3.8758 H       1  UNL1        0.2106
     15 O          16.0376   70.2843   -7.3049 O.2     1  UNL1       -0.2464
     16 O          19.4514   70.5949  -10.3856 O.2     1  UNL1       -0.2670
     17 N          18.1084   71.0873   -6.5810 N.ar    1  UNL1       -0.2551
     18 N          17.7387   70.4400   -8.8372 N.ar    1  UNL1       -0.2743
     19 C          17.2086   70.5828   -7.5486 C.ar    1  UNL1        0.3323
     20 C          19.4147   71.4025   -6.9389 C.ar    1  UNL1        0.0869
     21 C          19.9051   71.2593   -8.1719 C.ar    1  UNL1        0.0795
     22 C          19.0302   70.7381   -9.2420 C.ar    1  UNL1        0.2626
     23 H          17.1302   70.0898   -9.5278 H       1  UNL1        0.1734
     24 O          23.3292   73.0521   -2.3432 O.3     1  UNL1       -0.2703
     25 P          23.5932   73.7642   -3.7701 P.3     1  UNL1        0.2208
     26 O          22.7904   75.1629   -3.6409 O.co2   1  UNL1       -0.4371
     27 O          23.1996   72.9314   -4.9556 O.2     1  UNL1       -0.5170
     28 O          25.1513   74.1838   -3.7352 O.3     1  UNL1       -0.2858
     29 O          25.3802   76.0526   -2.2958 O.3     1  UNL1       -0.3258
     30 O          29.2689   75.7902   -3.6597 O.3     1  UNL1       -0.3794
     31 O          28.6565   75.0137   -0.9634 O.3     1  UNL1       -0.3794
     32 O          27.0669   75.2803   -5.4682 O.3     1  UNL1       -0.3775
     33 C          27.9963   75.2853   -3.2462 C.3     1  UNL1        0.1715
     34 C          27.7515   75.7267   -1.8019 C.3     1  UNL1        0.1694
     35 C          26.9143   75.8425   -4.1693 C.3     1  UNL1        0.1967
     36 C          26.3021   75.4542   -1.3774 C.3     1  UNL1        0.1761
     37 C          25.5110   75.5589   -3.6304 C.3     1  UNL1        0.2704
     38 H          29.9604   75.4398   -3.0779 H       1  UNL1        0.2105
     39 H          29.5680   75.1940   -1.2423 H       1  UNL1        0.2105
     40 H          27.9591   75.4670   -5.7984 H       1  UNL1        0.2106
     41 O          25.0598   75.1793    0.6450 O.3     1  UNL1       -0.3794
     42 C          25.9929   76.0289    0.0032 C.3     1  UNL1        0.1693
     43 H          24.8538   75.5325    1.5250 H       1  UNL1        0.2105
@<TRIPOS>UNITY_ATOM_ATTR
2 1
charge -1
26 1
charge -1
@<TRIPOS>BOND
     1    25    28    1
     2    25    24    1
     3    25    26    1
     4    25    27    2
     5     1     4    1
     6     1    24    1
     7     1     2    1
     8     1     3    2
     9     6    11    1
    10     6    12    1
    11    29    36    1
    12    29    37    1
    13     7     9    1
    14     7    13    1
    15     8    10    1
    16     8    14    1
    17    28    37    1
    18     4     5    1
    19    30    33    1
    20    30    38    1
    21    31    34    1
    22    31    39    1
    23    32    35    1
    24    32    40    1
    25    41    42    1
    26    41    43    1
    27    15    19    2
    28    16    22    2
    29    17    12    1
    30    17    19   ar
    31    17    20   ar
    32    18    19   ar
    33    18    22   ar
    34    18    23    1
    35     9    10    1
    36     9    11    1
    37    10    12    1
    38    11     5    1
    39    33    34    1
    40    33    35    1
    41    34    36    1
    42    35    37    1
    43    36    42    1
    44    20    21   ar
    45    21    22   ar
@<TRIPOS>MOLECULE
*****
 43 45 0 0 0
SMALL
GASTEIGER

@<TRIPOS>ATOM
      1 P          22.4607   71.0758   -2.8029 P.3     1  UNL1        0.2189
      2 O          23.8354   70.3708   -3.2831 O.co2   1  UNL1       -0.4371
      3 O          21.2108   70.3077   -3.1181 O.2     1  UNL1       -0.5170
      4 O          22.5476   72.5644   -3.4309 O.3     1  UNL1       -0.3112
      5 C          22.1525   72.7540   -4.7784 C.3     1  UNL1        0.1811
      6 O          20.7050   74.0243   -6.2153 O.3     1  UNL1       -0.3308
      7 O          19.1915   74.7555   -3.7322 O.3     1  UNL1       -0.3794
      8 O          17.6425   72.7897   -4.8152 O.3     1  UNL1       -0.3779
      9 C          19.8353   73.5274   -4.0676 C.3     1  UNL1        0.1713
     10 C          19.0258   72.7751   -5.1032 C.3     1  UNL1        0.1895
     11 C          21.1072   73.8594   -4.8378 C.3     1  UNL1        0.1764
     12 C          19.3658   73.5292   -6.3775 C.3     1  UNL1        0.2383
     13 H          18.3765   74.5691   -3.2393 H       1  UNL1        0.2105
     14 H          17.4774   72.2974   -3.9961 H       1  UNL1        0.2106
     15 O          18.4059   74.3540   -8.9026 O.2     1  UNL1       -0.2464
     16 O          19.2243   70.2199  -10.7682 O.2     1  UNL1       -0.2670
     17 N          19.3170   72.6890   -7.5407 N.ar    1  UNL1       -0.2551
     18 N          18.8144   72.2950   -9.8295 N.ar    1  UNL1       -0.2743
     19 C          18.8158   73.2002   -8.7606 C.ar    1  UNL1        0.3323
     20 C          19.7631   71.3741   -7.4650 C.ar    1  UNL1        0.0869
     21 C          19.7539   70.5233   -8.4932 C.ar    1  UNL1        0.0795
     22 C          19.2460   70.9782   -9.8036 C.ar    1  UNL1        0.2626
     23 H          18.4693   72.6288  -10.6893 H       1  UNL1        0.1734
     24 O          22.7142   71.3309   -1.2270 O.3     1  UNL1       -0.2703
     25 P          21.6785   71.4627    0.0071 P.3     1  UNL1        0.2208
     26 O          21.5905   69.9525    0.5806 O.co2   1  UNL1       -0.4371
     27 O          20.3531   72.0627   -0.3633 O.2     1  UNL1       -0.5170
     28 O          22.4909   72.2810    1.1365 O.3     1  UNL1       -0.2858
     29 O          21.5500   73.5170    2.9263 O.3     1  UNL1       -0.3258
     30 O          24.9843   75.7305    2.3295 O.3     1  UNL1       -0.3794
     31 O          24.7635   74.0539    4.6507 O.3     1  UNL1       -0.3794
     32 O          23.5539   74.6442    0.0594 O.3     1  UNL1       -0.3775
     33 C          24.1939   74.5397    2.3790 C.3     1  UNL1        0.1715
     34 C          23.6631   74.3754    3.8045 C.3     1  UNL1        0.1694
     35 C          23.0395   74.6651    1.3866 C.3     1  UNL1        0.1967
     36 C          22.5957   73.2751    3.8748 C.3     1  UNL1        0.1761
     37 C          22.0099   73.5493    1.5738 C.3     1  UNL1        0.2704
     38 H          25.7194   75.6572    2.9570 H       1  UNL1        0.2105
     39 H          25.4305   74.7563    4.5967 H       1  UNL1        0.2105
     40 H          24.2042   75.3553   -0.0464 H       1  UNL1        0.2106
     41 O          22.4210   74.2771    6.0369 O.3     1  UNL1       -0.3794
     42 C          21.9403   73.2012    5.2522 C.3     1  UNL1        0.1693
     43 H          22.0121   74.2430    6.9163 H       1  UNL1        0.2105
@<TRIPOS>UNITY_ATOM_ATTR
2 1
charge -1
26 1
charge -1
@<TRIPOS>BOND
     1    25    28    1
     2    25    24    1
     3    25    26    1
     4    25    27    2
     5     1     4    1
     6     1    24    1
     7     1     2    1
     8     1     3    2
     9     6    11    1
    10     6    12    1
    11    29    36    1
    12    29    37    1
    13     7     9    1
    14     7    13    1
    15     8    10    1
    16     8    14    1
    17    28    37    1
    18     4     5    1
    19    30    33    1
    20    30    38    1
    21    31    34    1
    22    31    39    1
    23    32    35    1
    24    32    40    1
    25    41    42    1
    26    41    43    1
    27    15    19    2
    28    16    22    2
    29    17    12    1
    30    17    19   ar
    31    17    20   ar
    32    18    19   ar
    33    18    22   ar
    34    18    23    1
    35     9    10    1
    36     9    11    1
    37    10    12    1
    38    11     5    1
    39    33    34    1
    40    33    35    1
    41    34    36    1
    42    35    37    1
    43    36    42    1
    44    20    21   ar
    45    21    22   ar
@<TRIPOS>MOLECULE
*****
 43 45 0 0 0
SMALL
GASTEIGER

@<TRIPOS>ATOM
      1 P          22.4881   73.0643   -4.4574 P.3     1  UNL1        0.2189
      2 O          22.6206   73.9510   -5.8040 O.co2   1  UNL1       -0.4371
      3 O          23.7803   72.5099   -3.9338 O.2     1  UNL1       -0.5170
      4 O          21.3513   71.9720   -4.8218 O.3     1  UNL1       -0.3112
      5 C          20.7890   71.2052   -3.7713 C.3     1  UNL1        0.1811
      6 O          18.8410   72.1132   -4.8458 O.3     1  UNL1       -0.3308
      7 O          17.2774   70.9795   -2.5522 O.3     1  UNL1       -0.3794
      8 O          16.8461   69.1497   -4.5277 O.3     1  UNL1       -0.3779
      9 C          18.4254   70.4480   -3.2117 C.3     1  UNL1        0.1713
     10 C          18.0438   69.8984   -4.5704 C.3     1  UNL1        0.1895
     11 C          19.3341   71.6130   -3.5837 C.3     1  UNL1        0.1764
     12 C          17.9117   71.1661   -5.3973 C.3     1  UNL1        0.2383
     13 H          16.6822   70.2540   -2.3046 H       1  UNL1        0.2105
     14 H          16.9812   68.3537   -3.9902 H       1  UNL1        0.2106
     15 O          16.0335   70.4130   -7.3678 O.2     1  UNL1       -0.2464
     16 O          19.2437   70.3748  -10.6745 O.2     1  UNL1       -0.2670
     17 N          18.2292   70.9529   -6.7811 N.ar    1  UNL1       -0.2551
     18 N          17.6334   70.3947   -9.0127 N.ar    1  UNL1       -0.2743
     19 C          17.2125   70.5756   -7.6891 C.ar    1  UNL1        0.3323
     20 C          19.5365   71.1182   -7.2256 C.ar    1  UNL1        0.0869
     21 C          19.9218   70.9407   -8.4910 C.ar    1  UNL1        0.0795
     22 C          18.9209   70.5458   -9.5030 C.ar    1  UNL1        0.2626
     23 H          16.9423   70.1314   -9.6629 H       1  UNL1        0.1734
     24 O          21.7221   74.0602   -3.4403 O.3     1  UNL1       -0.2703
     25 P          22.2573   74.8832   -2.1561 P.3     1  UNL1        0.2208
     26 O          21.1705   76.0711   -1.9975 O.co2   1  UNL1       -0.4371
     27 O          23.6775   75.3551   -2.2757 O.2     1  UNL1       -0.5170
     28 O          21.9803   73.9071   -0.9009 O.3     1  UNL1       -0.2858
     29 O          23.2526   73.9175    1.0985 O.3     1  UNL1       -0.3258
     30 O          21.9924   69.9855    1.1390 O.3     1  UNL1       -0.3794
     31 O          20.8566   71.8576    2.9972 O.3     1  UNL1       -0.3794
     32 O          22.7248   71.2413   -1.3642 O.3     1  UNL1       -0.3775
     33 C          21.8767   71.3882    0.8854 C.3     1  UNL1        0.1715
     34 C          22.0171   72.1294    2.2164 C.3     1  UNL1        0.1694
     35 C          22.9776   71.8125   -0.0850 C.3     1  UNL1        0.1967
     36 C          22.1709   73.6402    1.9957 C.3     1  UNL1        0.1761
     37 C          23.0780   73.3350   -0.1945 C.3     1  UNL1        0.2704
     38 H          21.2959   69.7095    1.7540 H       1  UNL1        0.2105
     39 H          20.7708   70.9003    3.1288 H       1  UNL1        0.2105
     40 H          22.6638   70.2773   -1.2814 H       1  UNL1        0.2106
     41 O          23.8183   74.1374    3.6534 O.3     1  UNL1       -0.3794
     42 C          22.4699   74.3809    3.2973 C.3     1  UNL1        0.1693
     43 H          24.0229   74.6029    4.4799 H       1  UNL1        0.2105
@<TRIPOS>UNITY_ATOM_ATTR
2 1
charge -1
26 1
charge -1
@<TRIPOS>BOND
     1    25    28    1
     2    25    24    1
     3    25    26    1
     4    25    27    2
     5     1     4    1
     6     1    24    1
     7     1     2    1
     8     1     3    2
     9     6    11    1
    10     6    12    1
    11    29    36    1
    12    29    37    1
    13     7     9    1
    14     7    13    1
    15     8    10    1
    16     8    14    1
    17    28    37    1
    18     4     5    1
    19    30    33    1
    20    30    38    1
    21    31    34    1
    22    31    39    1
    23    32    35    1
    24    32    40    1
    25    41    42    1
    26    41    43    1
    27    15    19    2
    28    16    22    2
    29    17    12    1
    30    17    19   ar
    31    17    20   ar
    32    18    19   ar
    33    18    22   ar
    34    18    23    1
    35     9    10    1
    36     9    11    1
    37    10    12    1
    38    11     5    1
    39    33    34    1
    40    33    35    1
    41    34    36    1
    42    35    37    1
    43    36    42    1
    44    20    21   ar
    45    21    22   ar
@<TRIPOS>MOLECULE
*****
 43 45 0 0 0
SMALL
GASTEIGER

@<TRIPOS>ATOM
      1 P          21.7432   73.0143   -4.7095 P.3     1  UNL1        0.2189
      2 O          22.1591   73.9706   -3.4726 O.co2   1  UNL1       -0.4371
      3 O          22.8454   72.7258   -5.6860 O.2     1  UNL1       -0.5170
      4 O          20.4273   73.7261   -5.3254 O.3     1  UNL1       -0.3112
      5 C          20.4772   75.1147   -5.6034 C.3     1  UNL1        0.1811
      6 O          20.3015   74.0522   -7.7515 O.3     1  UNL1       -0.3308
      7 O          20.0563   76.8155   -8.8896 O.3     1  UNL1       -0.3794
      8 O          17.4691   75.9541   -8.8576 O.3     1  UNL1       -0.3779
      9 C          19.5552   76.2994   -7.6575 C.3     1  UNL1        0.1713
     10 C          18.3607   75.4032   -7.9098 C.3     1  UNL1        0.1895
     11 C          20.5810   75.3154   -7.1091 C.3     1  UNL1        0.1764
     12 C          19.0225   74.1274   -8.4022 C.3     1  UNL1        0.2383
     13 H          19.4182   77.4467   -9.2588 H       1  UNL1        0.2105
     14 H          17.0740   76.7635   -8.4977 H       1  UNL1        0.2106
     15 O          19.0188   71.7500   -9.9273 O.2     1  UNL1       -0.2464
     16 O          16.0675   69.6909   -7.0478 O.2     1  UNL1       -0.2670
     17 N          18.2626   72.9543   -8.0739 N.ar    1  UNL1       -0.2551
     18 N          17.5494   70.7266   -8.4922 N.ar    1  UNL1       -0.2743
     19 C          18.3302   71.8131   -8.9067 C.ar    1  UNL1        0.3323
     20 C          17.4618   72.9431   -6.9370 C.ar    1  UNL1        0.0869
     21 C          16.7223   71.8993   -6.5563 C.ar    1  UNL1        0.0795
     22 C          16.7365   70.6674   -7.3713 C.ar    1  UNL1        0.2626
     23 H          17.5804   69.9206   -9.0572 H       1  UNL1        0.1734
     24 O          21.1387   71.7088   -3.9723 O.3     1  UNL1       -0.2703
     25 P          21.7842   70.7176   -2.8707 P.3     1  UNL1        0.2208
     26 O          23.3700   70.8012   -3.1801 O.co2   1  UNL1       -0.4371
     27 O          21.2219   69.3257   -2.8907 O.2     1  UNL1       -0.5170
     28 O          21.6014   71.4926   -1.4668 O.3     1  UNL1       -0.2858
     29 O          23.2579   72.8640   -0.4708 O.3     1  UNL1       -0.3258
     30 O          21.2678   71.6519    2.9381 O.3     1  UNL1       -0.3794
     31 O          20.9725   74.3532    2.0088 O.3     1  UNL1       -0.3794
     32 O          21.6698   69.7872    0.7608 O.3     1  UNL1       -0.3775
     33 C          21.3858   72.0392    1.5665 C.3     1  UNL1        0.1715
     34 C          21.9630   73.4552    1.5160 C.3     1  UNL1        0.1694
     35 C          22.3084   71.0565    0.8479 C.3     1  UNL1        0.1967
     36 C          22.3672   73.8379    0.0859 C.3     1  UNL1        0.1761
     37 C          22.6885   71.5556   -0.5473 C.3     1  UNL1        0.2704
     38 H          20.6828   72.2715    3.4000 H       1  UNL1        0.2105
     39 H          20.7258   74.1002    2.9122 H       1  UNL1        0.2105
     40 H          21.4345   69.4821    1.6503 H       1  UNL1        0.2106
     41 O          24.4844   74.9453    0.0724 O.3     1  UNL1       -0.3794
     42 C          23.0892   75.1827    0.0361 C.3     1  UNL1        0.1693
     43 H          24.9568   75.7924    0.0411 H       1  UNL1        0.2105
@<TRIPOS>UNITY_ATOM_ATTR
2 1
charge -1
26 1
charge -1
@<TRIPOS>BOND
     1    25    28    1
     2    25    24    1
     3    25    26    1
     4    25    27    2
     5     1     4    1
     6     1    24    1
     7     1     2    1
     8     1     3    2
     9     6    11    1
    10     6    12    1
    11    29    36    1
    12    29    37    1
    13     7     9    1
    14     7    13    1
    15     8    10    1
    16     8    14    1
    17    28    37    1
    18     4     5    1
    19    30    33    1
    20    30    38    1
    21    31    34    1
    22    31    39    1
    23    32    35    1
    24    32    40    1
    25    41    42    1
    26    41    43    1
    27    15    19    2
    28    16    22    2
    29    17    12    1
    30    17    19   ar
    31    17    20   ar
    32    18    19   ar
    33    18    22   ar
    34    18    23    1
    35     9    10    1
    36     9    11    1
    37    10    12    1
    38    11     5    1
    39    33    34    1
    40    33    35    1
    41    34    36    1
    42    35    37    1
    43    36    42    1
    44    20    21   ar
    45    21    22   ar
@<TRIPOS>MOLECULE
*****
 43 45 0 0 0
SMALL
GASTEIGER

@<TRIPOS>ATOM
      1 P          21.9315   73.4986   -5.8575 P.3     1  UNL1        0.2189
      2 O          22.1810   74.9072   -5.1019 O.co2   1  UNL1       -0.4371
      3 O          22.9044   73.1881   -6.9568 O.2     1  UNL1       -0.5170
      4 O          20.3749   73.5624   -6.2942 O.3     1  UNL1       -0.3112
      5 C          20.0414   74.1931   -7.5185 C.3     1  UNL1        0.1811
      6 O          19.7888   71.8352   -7.9059 O.3     1  UNL1       -0.3308
      7 O          18.1853   72.5941  -10.3233 O.3     1  UNL1       -0.3794
      8 O          16.2550   71.9509   -8.5076 O.3     1  UNL1       -0.3779
      9 C          18.2507   73.2301   -9.0479 C.3     1  UNL1        0.1713
     10 C          17.4945   72.4190   -8.0165 C.3     1  UNL1        0.1895
     11 C          19.6851   73.1264   -8.5448 C.3     1  UNL1        0.1764
     12 C          18.4708   71.2923   -7.7242 C.3     1  UNL1        0.2383
     13 H          17.2786   72.6479  -10.6651 H       1  UNL1        0.2105
     14 H          15.6691   72.7047   -8.6781 H       1  UNL1        0.2106
     15 O          16.0289   71.0473   -6.3259 O.2     1  UNL1       -0.2464
     16 O          18.1318   69.3864   -2.5761 O.2     1  UNL1       -0.2670
     17 N          18.3510   70.7984   -6.3814 N.ar    1  UNL1       -0.2551
     18 N          17.0779   70.2203   -4.4600 N.ar    1  UNL1       -0.2743
     19 C          17.0782   70.7162   -5.7700 C.ar    1  UNL1        0.3323
     20 C          19.4874   70.4015   -5.6850 C.ar    1  UNL1        0.0869
     21 C          19.4703   69.9320   -4.4358 C.ar    1  UNL1        0.0795
     22 C          18.1806   69.8143   -3.7252 C.ar    1  UNL1        0.2626
     23 H          16.2025   70.1545   -4.0138 H       1  UNL1        0.1734
     24 O          21.9249   72.4311   -4.6437 O.3     1  UNL1       -0.2703
     25 P          22.9947   72.1599   -3.4627 P.3     1  UNL1        0.2208
     26 O          24.2260   73.1369   -3.8459 O.co2   1  UNL1       -0.4371
     27 O          23.3768   70.7175   -3.2978 O.2     1  UNL1       -0.5170
     28 O          22.3347   72.8311   -2.1516 O.3     1  UNL1       -0.2858
     29 O          21.6113   71.1398   -0.6573 O.3     1  UNL1       -0.3258
     30 O          20.0503   74.4387    1.2744 O.3     1  UNL1       -0.3794
     31 O          22.3302   73.0918    2.3860 O.3     1  UNL1       -0.3794
     32 O          20.0064   74.3036   -1.6169 O.3     1  UNL1       -0.3775
     33 C          21.0077   73.7178    0.4940 C.3     1  UNL1        0.1715
     34 C          21.5327   72.5529    1.3353 C.3     1  UNL1        0.1694
     35 C          20.3311   73.2026   -0.7749 C.3     1  UNL1        0.1967
     36 C          22.3590   71.5813    0.4819 C.3     1  UNL1        0.1761
     37 C          21.2183   72.2063   -1.5234 C.3     1  UNL1        0.2704
     38 H          20.4737   74.7691    2.0813 H       1  UNL1        0.2105
     39 H          21.7968   73.7039    2.9170 H       1  UNL1        0.2105
     40 H          19.4443   74.9268   -1.1316 H       1  UNL1        0.2106
     41 O          22.7515   69.2266    0.3793 O.3     1  UNL1       -0.3794
     42 C          22.7600   70.3322    1.2636 C.3     1  UNL1        0.1693
     43 H          23.0051   68.4245    0.8631 H       1  UNL1        0.2105
@<TRIPOS>UNITY_ATOM_ATTR
2 1
charge -1
26 1
charge -1
@<TRIPOS>BOND
     1    25    28    1
     2    25    24    1
     3    25    26    1
     4    25    27    2
     5     1     4    1
     6     1    24    1
     7     1     2    1
     8     1     3    2
     9     6    11    1
    10     6    12    1
    11    29    36    1
    12    29    37    1
    13     7     9    1
    14     7    13    1
    15     8    10    1
    16     8    14    1
    17    28    37    1
    18     4     5    1
    19    30    33    1
    20    30    38    1
    21    31    34    1
    22    31    39    1
    23    32    35    1
    24    32    40    1
    25    41    42    1
    26    41    43    1
    27    15    19    2
    28    16    22    2
    29    17    12    1
    30    17    19   ar
    31    17    20   ar
    32    18    19   ar
    33    18    22   ar
    34    18    23    1
    35     9    10    1
    36     9    11    1
    37    10    12    1
    38    11     5    1
    39    33    34    1
    40    33    35    1
    41    34    36    1
    42    35    37    1
    43    36    42    1
    44    20    21   ar
    45    21    22   ar
@<TRIPOS>MOLECULE
*****
 43 45 0 0 0
SMALL
GASTEIGER

@<TRIPOS>ATOM
      1 P          22.1501   73.4663   -5.3558 P.3     1  UNL1        0.2189
      2 O          22.2696   74.9703   -5.9398 O.co2   1  UNL1       -0.4371
      3 O          23.4506   72.8409   -4.9448 O.2     1  UNL1       -0.5170
      4 O          21.3174   72.6728   -6.4937 O.3     1  UNL1       -0.3112
      5 C          20.6446   73.4258   -7.4878 C.3     1  UNL1        0.1811
      6 O          19.8995   71.1724   -7.8632 O.3     1  UNL1       -0.3308
      7 O          18.3071   72.2788  -10.1504 O.3     1  UNL1       -0.3794
      8 O          16.4253   71.9982   -8.1967 O.3     1  UNL1       -0.3779
      9 C          18.5910   72.8656   -8.8814 C.3     1  UNL1        0.1713
     10 C          17.7658   72.2019   -7.7987 C.3     1  UNL1        0.1895
     11 C          20.0088   72.4701   -8.4881 C.3     1  UNL1        0.1764
     12 C          18.5166   70.8986   -7.5846 C.3     1  UNL1        0.2383
     13 H          17.4068   72.5177  -10.4228 H       1  UNL1        0.2105
     14 H          15.9905   72.8564   -8.3201 H       1  UNL1        0.2106
     15 O          16.2791   69.4955   -6.5832 O.2     1  UNL1       -0.2464
     16 O          18.1757   69.0877   -2.4025 O.2     1  UNL1       -0.2670
     17 N          18.3993   70.4138   -6.2383 N.ar    1  UNL1       -0.2551
     18 N          17.2254   69.2934   -4.5024 N.ar    1  UNL1       -0.2743
     19 C          17.2332   69.7217   -5.8361 C.ar    1  UNL1        0.3323
     20 C          19.4332   70.6257   -5.3328 C.ar    1  UNL1        0.0869
     21 C          19.4097   70.2120   -4.0642 C.ar    1  UNL1        0.0795
     22 C          18.2276   69.4810   -3.5638 C.ar    1  UNL1        0.2626
     23 H          16.4230   68.8094   -4.1997 H       1  UNL1        0.1734
     24 O          21.0727   73.6248   -4.1612 O.3     1  UNL1       -0.2703
     25 P          21.1960   74.3163   -2.7053 P.3     1  UNL1        0.2208
     26 O          19.7349   74.9742   -2.4821 O.co2   1  UNL1       -0.4371
     27 O          22.3368   75.2839   -2.5782 O.2     1  UNL1       -0.5170
     28 O          21.2489   73.0800   -1.6691 O.3     1  UNL1       -0.2858
     29 O          22.9283   73.3968   -0.0271 O.3     1  UNL1       -0.3258
     30 O          21.9214   69.4798    0.8061 O.3     1  UNL1       -0.3794
     31 O          21.1242   71.5641    2.6140 O.3     1  UNL1       -0.3794
     32 O          22.0152   70.3939   -1.9389 O.3     1  UNL1       -0.3775
     33 C          21.6774   70.8309    0.4055 C.3     1  UNL1        0.1715
     34 C          22.0677   71.7522    1.5629 C.3     1  UNL1        0.1694
     35 C          22.5127   71.1423   -0.8349 C.3     1  UNL1        0.1967
     36 C          22.0876   73.2211    1.1192 C.3     1  UNL1        0.1761
     37 C          22.5045   72.6369   -1.1607 C.3     1  UNL1        0.2704
     38 H          21.3935   69.2755    1.5930 H       1  UNL1        0.2105
     39 H          21.1212   70.6324    2.8845 H       1  UNL1        0.2105
     40 H          22.0258   69.4495   -1.7202 H       1  UNL1        0.2106
     41 O          22.2229   75.4674    1.9224 O.3     1  UNL1       -0.3794
     42 C          22.6259   74.1416    2.2124 C.3     1  UNL1        0.1693
     43 H          22.5582   76.0643    2.6100 H       1  UNL1        0.2105
@<TRIPOS>UNITY_ATOM_ATTR
2 1
charge -1
26 1
charge -1
@<TRIPOS>BOND
     1    25    28    1
     2    25    24    1
     3    25    26    1
     4    25    27    2
     5     1     4    1
     6     1    24    1
     7     1     2    1
     8     1     3    2
     9     6    11    1
    10     6    12    1
    11    29    36    1
    12    29    37    1
    13     7     9    1
    14     7    13    1
    15     8    10    1
    16     8    14    1
    17    28    37    1
    18     4     5    1
    19    30    33    1
    20    30    38    1
    21    31    34    1
    22    31    39    1
    23    32    35    1
    24    32    40    1
    25    41    42    1
    26    41    43    1
    27    15    19    2
    28    16    22    2
    29    17    12    1
    30    17    19   ar
    31    17    20   ar
    32    18    19   ar
    33    18    22   ar
    34    18    23    1
    35     9    10    1
    36     9    11    1
    37    10    12    1
    38    11     5    1
    39    33    34    1
    40    33    35    1
    41    34    36    1
    42    35    37    1
    43    36    42    1
    44    20    21   ar
    45    21    22   ar
@<TRIPOS>MOLECULE
*****
 43 45 0 0 0
SMALL
GASTEIGER

@<TRIPOS>ATOM
      1 P          22.0307   70.6424   -2.7809 P.3     1  UNL1        0.2189
      2 O          23.5558   70.5641   -3.3149 O.co2   1  UNL1       -0.4371
      3 O          21.2717   69.3493   -2.8387 O.2     1  UNL1       -0.5170
      4 O          21.3895   71.8713   -3.6154 O.3     1  UNL1       -0.3112
      5 C          22.0662   73.1163   -3.6129 C.3     1  UNL1        0.1811
      6 O          22.0088   72.4341   -5.9162 O.3     1  UNL1       -0.3308
      7 O          23.1467   75.1349   -6.5500 O.3     1  UNL1       -0.3794
      8 O          20.5034   75.4496   -7.1422 O.3     1  UNL1       -0.3779
      9 C          22.2040   74.7664   -5.5446 C.3     1  UNL1        0.1713
     10 C          20.8523   74.4873   -6.1681 C.3     1  UNL1        0.1895
     11 C          22.5980   73.3943   -5.0122 C.3     1  UNL1        0.1764
     12 C          21.0583   73.1037   -6.7606 C.3     1  UNL1        0.2383
     13 H          22.9158   76.0083   -6.9048 H       1  UNL1        0.2105
     14 H          20.3834   76.3126   -6.7160 H       1  UNL1        0.2106
     15 O          20.5483   71.0070   -8.5833 O.2     1  UNL1       -0.2464
     16 O          16.3672   70.2328   -6.8055 O.2     1  UNL1       -0.2670
     17 N          19.8449   72.3370   -6.7962 N.ar    1  UNL1       -0.2551
     18 N          18.4669   70.6231   -7.6965 N.ar    1  UNL1       -0.2743
     19 C          19.6886   71.3061   -7.7520 C.ar    1  UNL1        0.3323
     20 C          18.8259   72.6098   -5.8901 C.ar    1  UNL1        0.0869
     21 C          17.6664   71.9501   -5.8512 C.ar    1  UNL1        0.0795
     22 C          17.4230   70.8581   -6.8157 C.ar    1  UNL1        0.2626
     23 H          18.3355   69.9010   -8.3531 H       1  UNL1        0.1734
     24 O          22.1967   71.2591   -1.2959 O.3     1  UNL1       -0.2703
     25 P          22.4384   70.5398    0.1314 P.3     1  UNL1        0.2208
     26 O          23.9296   69.9284   -0.0090 O.co2   1  UNL1       -0.4371
     27 O          21.3878   69.5320    0.4982 O.2     1  UNL1       -0.5170
     28 O          22.5937   71.7562    1.1808 O.3     1  UNL1       -0.2858
     29 O          21.5976   72.4520    3.2156 O.3     1  UNL1       -0.3258
     30 O          21.3878   76.0087    1.1283 O.3     1  UNL1       -0.3794
     31 O          23.2777   75.7327    3.2731 O.3     1  UNL1       -0.3794
     32 O          20.9173   73.5015   -0.2400 O.3     1  UNL1       -0.3775
     33 C          21.9669   74.7621    1.5236 C.3     1  UNL1        0.1715
     34 C          22.2207   74.8081    3.0317 C.3     1  UNL1        0.1694
     35 C          21.0017   73.6306    1.1751 C.3     1  UNL1        0.1967
     36 C          22.5900   73.4208    3.5738 C.3     1  UNL1        0.1761
     37 C          21.4351   72.3049    1.8035 C.3     1  UNL1        0.2704
     38 H          21.9959   76.7313    1.3463 H       1  UNL1        0.2105
     39 H          23.0320   76.6045    2.9255 H       1  UNL1        0.2105
     40 H          20.6418   74.3471   -0.6259 H       1  UNL1        0.2106
     41 O          21.4790   72.9117    5.6270 O.3     1  UNL1       -0.3794
     42 C          22.6933   73.4110    5.0974 C.3     1  UNL1        0.1693
     43 H          21.5303   72.8994    6.5960 H       1  UNL1        0.2105
@<TRIPOS>UNITY_ATOM_ATTR
2 1
charge -1
26 1
charge -1
@<TRIPOS>BOND
     1    25    28    1
     2    25    24    1
     3    25    26    1
     4    25    27    2
     5     1     4    1
     6     1    24    1
     7     1     2    1
     8     1     3    2
     9     6    11    1
    10     6    12    1
    11    29    36    1
    12    29    37    1
    13     7     9    1
    14     7    13    1
    15     8    10    1
    16     8    14    1
    17    28    37    1
    18     4     5    1
    19    30    33    1
    20    30    38    1
    21    31    34    1
    22    31    39    1
    23    32    35    1
    24    32    40    1
    25    41    42    1
    26    41    43    1
    27    15    19    2
    28    16    22    2
    29    17    12    1
    30    17    19   ar
    31    17    20   ar
    32    18    19   ar
    33    18    22   ar
    34    18    23    1
    35     9    10    1
    36     9    11    1
    37    10    12    1
    38    11     5    1
    39    33    34    1
    40    33    35    1
    41    34    36    1
    42    35    37    1
    43    36    42    1
    44    20    21   ar
    45    21    22   ar
@<TRIPOS>MOLECULE
*****
 43 45 0 0 0
SMALL
GASTEIGER

@<TRIPOS>ATOM
      1 P          21.4750   73.2234   -5.0359 P.3     1  UNL1        0.2189
      2 O          21.8543   74.7874   -4.8706 O.co2   1  UNL1       -0.4371
      3 O          22.0338   72.5618   -6.2613 O.2     1  UNL1       -0.5170
      4 O          19.8632   73.1977   -4.8966 O.3     1  UNL1       -0.3112
      5 C          19.2467   74.1140   -4.0088 C.3     1  UNL1        0.1811
      6 O          17.2859   73.7085   -5.3373 O.3     1  UNL1       -0.3308
      7 O          16.0409   72.6279   -2.8327 O.3     1  UNL1       -0.3794
      8 O          16.7519   70.3598   -4.1694 O.3     1  UNL1       -0.3779
      9 C          17.3912   72.5317   -3.2831 C.3     1  UNL1        0.1713
     10 C          17.4971   71.5344   -4.4179 C.3     1  UNL1        0.1895
     11 C          17.7492   73.8408   -3.9756 C.3     1  UNL1        0.1764
     12 C          16.9554   72.3333   -5.5911 C.3     1  UNL1        0.2383
     13 H          15.7895   71.8034   -2.3867 H       1  UNL1        0.2105
     14 H          17.1357   69.8869   -3.4146 H       1  UNL1        0.2106
     15 O          16.2987   69.9620   -6.9780 O.2     1  UNL1       -0.2464
     16 O          19.2634   70.9116  -10.3766 O.2     1  UNL1       -0.2670
     17 N          17.5401   71.9362   -6.8408 N.ar    1  UNL1       -0.2551
     18 N          17.7753   70.4369   -8.6692 N.ar    1  UNL1       -0.2743
     19 C          17.1414   70.7256   -7.4539 C.ar    1  UNL1        0.3323
     20 C          18.4972   72.7436   -7.4457 C.ar    1  UNL1        0.0869
     21 C          19.0931   72.4533   -8.6041 C.ar    1  UNL1        0.0795
     22 C          18.7333   71.2066   -9.3099 C.ar    1  UNL1        0.2626
     23 H          17.5137   69.5983   -9.1144 H       1  UNL1        0.1734
     24 O          21.9707   72.5795   -3.6385 O.3     1  UNL1       -0.2703
     25 P          21.8982   71.0630   -3.0835 P.3     1  UNL1        0.2208
     26 O          23.4354   70.5649   -3.1629 O.co2   1  UNL1       -0.4371
     27 O          20.9244   70.1857   -3.8157 O.2     1  UNL1       -0.5170
     28 O          21.6013   71.2196   -1.5048 O.3     1  UNL1       -0.2858
     29 O          23.2347   72.6832   -0.6069 O.3     1  UNL1       -0.3258
     30 O          21.2620   71.6780    2.8787 O.3     1  UNL1       -0.3794
     31 O          20.9238   74.3033    1.7646 O.3     1  UNL1       -0.3794
     32 O          21.6957   69.6738    0.8354 O.3     1  UNL1       -0.3775
     33 C          21.3747   71.9713    1.4834 C.3     1  UNL1        0.1715
     34 C          21.9290   73.3895    1.3348 C.3     1  UNL1        0.1694
     35 C          22.3136   70.9562    0.8342 C.3     1  UNL1        0.1967
     36 C          22.3280   73.6788   -0.1186 C.3     1  UNL1        0.1761
     37 C          22.6866   71.3637   -0.5923 C.3     1  UNL1        0.2704
     38 H          20.6668   72.3186    3.2968 H       1  UNL1        0.2105
     39 H          20.6805   74.1095    2.6835 H       1  UNL1        0.2105
     40 H          21.4647   69.4272    1.7441 H       1  UNL1        0.2106
     41 O          24.3450   74.8040   -0.7305 O.3     1  UNL1       -0.3794
     42 C          23.0282   75.0284   -0.2616 C.3     1  UNL1        0.1693
     43 H          24.8027   75.6544   -0.8266 H       1  UNL1        0.2105
@<TRIPOS>UNITY_ATOM_ATTR
2 1
charge -1
26 1
charge -1
@<TRIPOS>BOND
     1    25    28    1
     2    25    24    1
     3    25    26    1
     4    25    27    2
     5     1     4    1
     6     1    24    1
     7     1     2    1
     8     1     3    2
     9     6    11    1
    10     6    12    1
    11    29    36    1
    12    29    37    1
    13     7     9    1
    14     7    13    1
    15     8    10    1
    16     8    14    1
    17    28    37    1
    18     4     5    1
    19    30    33    1
    20    30    38    1
    21    31    34    1
    22    31    39    1
    23    32    35    1
    24    32    40    1
    25    41    42    1
    26    41    43    1
    27    15    19    2
    28    16    22    2
    29    17    12    1
    30    17    19   ar
    31    17    20   ar
    32    18    19   ar
    33    18    22   ar
    34    18    23    1
    35     9    10    1
    36     9    11    1
    37    10    12    1
    38    11     5    1
    39    33    34    1
    40    33    35    1
    41    34    36    1
    42    35    37    1
    43    36    42    1
    44    20    21   ar
    45    21    22   ar
@<TRIPOS>MOLECULE
*****
 43 45 0 0 0
SMALL
GASTEIGER

@<TRIPOS>ATOM
      1 P          22.6775   73.0164   -4.0253 P.3     1  UNL1        0.2189
      2 O          23.1465   73.7085   -5.4104 O.co2   1  UNL1       -0.4371
      3 O          23.5242   71.8625   -3.5748 O.2     1  UNL1       -0.5170
      4 O          21.1118   72.6870   -4.2665 O.3     1  UNL1       -0.3112
      5 C          20.5261   71.6196   -3.5418 C.3     1  UNL1        0.1811
      6 O          18.5327   72.3059   -4.6948 O.3     1  UNL1       -0.3308
      7 O          17.0165   71.0309   -2.4439 O.3     1  UNL1       -0.3794
      8 O          16.8538   69.1494   -4.4111 O.3     1  UNL1       -0.3779
      9 C          18.2376   70.6194   -3.0563 C.3     1  UNL1        0.1713
     10 C          17.9659   70.0211   -4.4208 C.3     1  UNL1        0.1895
     11 C          19.0303   71.8715   -3.4102 C.3     1  UNL1        0.1764
     12 C          17.7299   71.2605   -5.2671 C.3     1  UNL1        0.2383
     13 H          16.4932   70.2482   -2.2086 H       1  UNL1        0.2105
     14 H          17.0532   68.3768   -3.8597 H       1  UNL1        0.2106
     15 O          16.0130   70.3012   -7.2944 O.2     1  UNL1       -0.2464
     16 O          19.3285   70.5717  -10.4843 O.2     1  UNL1       -0.2670
     17 N          18.1181   71.0709   -6.6363 N.ar    1  UNL1       -0.2551
     18 N          17.6652   70.4368   -8.8811 N.ar    1  UNL1       -0.2743
     19 C          17.1797   70.5831   -7.5754 C.ar    1  UNL1        0.3323
     20 C          19.4166   71.3680   -7.0359 C.ar    1  UNL1        0.0869
     21 C          19.8641   71.2217   -8.2847 C.ar    1  UNL1        0.0795
     22 C          18.9471   70.7172   -9.3270 C.ar    1  UNL1        0.2626
     23 H          17.0293   70.0981   -9.5524 H       1  UNL1        0.1734
     24 O          22.6324   74.2606   -2.9944 O.3     1  UNL1       -0.2703
     25 P          23.7588   74.8564   -1.9997 P.3     1  UNL1        0.2208
     26 O          23.2726   76.3807   -1.7592 O.co2   1  UNL1       -0.4371
     27 O          25.1635   74.7282   -2.5137 O.2     1  UNL1       -0.5170
     28 O          23.4920   74.1163   -0.5905 O.3     1  UNL1       -0.2858
     29 O          21.6114   72.6852   -0.4115 O.3     1  UNL1       -0.3258
     30 O          22.3132   73.3574    3.6017 O.3     1  UNL1       -0.3794
     31 O          22.9366   70.7957    2.4629 O.3     1  UNL1       -0.3794
     32 O          22.6528   75.5099    1.6962 O.3     1  UNL1       -0.3775
     33 C          22.6720   73.1616    2.2312 C.3     1  UNL1        0.1715
     34 C          22.1621   71.7870    1.7938 C.3     1  UNL1        0.1694
     35 C          22.0368   74.2644    1.3865 C.3     1  UNL1        0.1967
     36 C          22.2713   71.6139    0.2729 C.3     1  UNL1        0.1761
     37 C          22.1582   73.9705   -0.1099 C.3     1  UNL1        0.2704
     38 H          22.7137   72.6607    4.1437 H       1  UNL1        0.2105
     39 H          22.8594   70.9165    3.4224 H       1  UNL1        0.2105
     40 H          22.5689   75.6846    2.6461 H       1  UNL1        0.2106
     41 O          22.0918   69.2555    0.6114 O.3     1  UNL1       -0.3794
     42 C          21.6243   70.3150   -0.2028 C.3     1  UNL1        0.1693
     43 H          21.6881   68.4224    0.3204 H       1  UNL1        0.2105
@<TRIPOS>UNITY_ATOM_ATTR
2 1
charge -1
26 1
charge -1
@<TRIPOS>BOND
     1    25    28    1
     2    25    24    1
     3    25    26    1
     4    25    27    2
     5     1     4    1
     6     1    24    1
     7     1     2    1
     8     1     3    2
     9     6    11    1
    10     6    12    1
    11    29    36    1
    12    29    37    1
    13     7     9    1
    14     7    13    1
    15     8    10    1
    16     8    14    1
    17    28    37    1
    18     4     5    1
    19    30    33    1
    20    30    38    1
    21    31    34    1
    22    31    39    1
    23    32    35    1
    24    32    40    1
    25    41    42    1
    26    41    43    1
    27    15    19    2
    28    16    22    2
    29    17    12    1
    30    17    19   ar
    31    17    20   ar
    32    18    19   ar
    33    18    22   ar
    34    18    23    1
    35     9    10    1
    36     9    11    1
    37    10    12    1
    38    11     5    1
    39    33    34    1
    40    33    35    1
    41    34    36    1
    42    35    37    1
    43    36    42    1
    44    20    21   ar
    45    21    22   ar
@<TRIPOS>MOLECULE
*****
 43 45 0 0 0
SMALL
GASTEIGER

@<TRIPOS>ATOM
      1 P          21.2549   70.5492   -2.9607 P.3     1  UNL1        0.2189
      2 O          22.4987   71.3141   -3.6572 O.co2   1  UNL1       -0.4371
      3 O          21.2736   69.0550   -3.0960 O.2     1  UNL1       -0.5170
      4 O          19.9524   71.2934   -3.5673 O.3     1  UNL1       -0.3112
      5 C          19.0054   70.5211   -4.2846 C.3     1  UNL1        0.1811
      6 O          18.5480   72.6570   -5.2860 O.3     1  UNL1       -0.3308
      7 O          15.9045   71.4995   -6.1001 O.3     1  UNL1       -0.3794
      8 O          17.3573   71.3404   -8.4024 O.3     1  UNL1       -0.3779
      9 C          17.1812   70.8673   -6.0240 C.3     1  UNL1        0.1713
     10 C          18.0580   71.3130   -7.1756 C.3     1  UNL1        0.1895
     11 C          17.9188   71.4427   -4.8214 C.3     1  UNL1        0.1764
     12 C          18.4960   72.6951   -6.7215 C.3     1  UNL1        0.2383
     13 H          15.4146   71.1479   -6.8606 H       1  UNL1        0.2105
     14 H          17.1004   70.4380   -8.6483 H       1  UNL1        0.2106
     15 O          18.9469   73.9819   -9.1952 O.2     1  UNL1       -0.2464
     16 O          23.5109   74.0149   -8.5543 O.2     1  UNL1       -0.2670
     17 N          19.7920   73.0521   -7.2258 N.ar    1  UNL1       -0.2551
     18 N          21.2190   73.9975   -8.8740 N.ar    1  UNL1       -0.2743
     19 C          19.9093   73.6948   -8.4803 C.ar    1  UNL1        0.3323
     20 C          20.9294   72.7652   -6.4788 C.ar    1  UNL1        0.0869
     21 C          22.1714   73.0593   -6.8690 C.ar    1  UNL1        0.0795
     22 C          22.3813   73.7315   -8.1675 C.ar    1  UNL1        0.2626
     23 H          21.3252   74.4451   -9.7447 H       1  UNL1        0.1734
     24 O          21.3042   71.0874   -1.4373 O.3     1  UNL1       -0.2703
     25 P          22.1458   70.5732   -0.1565 P.3     1  UNL1        0.2208
     26 O          23.5857   70.1913   -0.7877 O.co2   1  UNL1       -0.4371
     27 O          21.4882   69.4589    0.6049 O.2     1  UNL1       -0.5170
     28 O          22.4219   71.9051    0.7123 O.3     1  UNL1       -0.2858
     29 O          20.9340   72.9782    2.2126 O.3     1  UNL1       -0.3258
     30 O          22.9876   76.2873    0.8404 O.3     1  UNL1       -0.3794
     31 O          23.4537   75.3355    3.5097 O.3     1  UNL1       -0.3794
     32 O          22.3273   74.1388   -0.9838 O.3     1  UNL1       -0.3775
     33 C          22.8328   74.9220    1.2372 C.3     1  UNL1        0.1715
     34 C          22.3703   74.8958    2.6953 C.3     1  UNL1        0.1694
     35 C          21.7988   74.2536    0.3330 C.3     1  UNL1        0.1967
     36 C          21.9273   73.4865    3.1107 C.3     1  UNL1        0.1761
     37 C          21.3909   72.8776    0.8625 C.3     1  UNL1        0.2704
     38 H          23.6432   76.7173    1.4103 H       1  UNL1        0.2105
     39 H          23.7241   76.2264    3.2367 H       1  UNL1        0.2105
     40 H          22.5815   75.0165   -1.3077 H       1  UNL1        0.2106
     41 O          22.0324   72.5404    5.3022 O.3     1  UNL1       -0.3794
     42 C          21.3151   73.4685    4.5096 C.3     1  UNL1        0.1693
     43 H          21.6540   72.5185    6.1956 H       1  UNL1        0.2105
@<TRIPOS>UNITY_ATOM_ATTR
2 1
charge -1
26 1
charge -1
@<TRIPOS>BOND
     1    25    28    1
     2    25    24    1
     3    25    26    1
     4    25    27    2
     5     1     4    1
     6     1    24    1
     7     1     2    1
     8     1     3    2
     9     6    11    1
    10     6    12    1
    11    29    36    1
    12    29    37    1
    13     7     9    1
    14     7    13    1
    15     8    10    1
    16     8    14    1
    17    28    37    1
    18     4     5    1
    19    30    33    1
    20    30    38    1
    21    31    34    1
    22    31    39    1
    23    32    35    1
    24    32    40    1
    25    41    42    1
    26    41    43    1
    27    15    19    2
    28    16    22    2
    29    17    12    1
    30    17    19   ar
    31    17    20   ar
    32    18    19   ar
    33    18    22   ar
    34    18    23    1
    35     9    10    1
    36     9    11    1
    37    10    12    1
    38    11     5    1
    39    33    34    1
    40    33    35    1
    41    34    36    1
    42    35    37    1
    43    36    42    1
    44    20    21   ar
    45    21    22   ar
@<TRIPOS>MOLECULE
*****
 43 45 0 0 0
SMALL
GASTEIGER

@<TRIPOS>ATOM
      1 P          21.7654   72.9254   -5.0924 P.3     1  UNL1        0.2189
      2 O          20.9823   74.3410   -5.1073 O.co2   1  UNL1       -0.4371
      3 O          23.2591   73.0264   -5.1932 O.2     1  UNL1       -0.5170
      4 O          21.0391   72.0675   -6.2562 O.3     1  UNL1       -0.3112
      5 C          21.1060   72.5438   -7.5891 C.3     1  UNL1        0.1811
      6 O          19.3444   70.9096   -7.5934 O.3     1  UNL1       -0.3308
      7 O          18.8121   71.7650  -10.4175 O.3     1  UNL1       -0.3794
      8 O          16.8623   73.0668   -9.0246 O.3     1  UNL1       -0.3779
      9 C          19.2222   72.5501   -9.2991 C.3     1  UNL1        0.1713
     10 C          18.0624   72.7549   -8.3469 C.3     1  UNL1        0.1895
     11 C          20.1774   71.7097   -8.4608 C.3     1  UNL1        0.1764
     12 C          17.9999   71.4150   -7.6337 C.3     1  UNL1        0.2383
     13 H          18.2016   72.2808  -10.9680 H       1  UNL1        0.2105
     14 H          16.9522   73.9278   -9.4620 H       1  UNL1        0.2106
     15 O          15.5927   72.7127   -6.9272 O.2     1  UNL1       -0.2464
     16 O          16.2023   71.8033   -2.4503 O.2     1  UNL1       -0.2670
     17 N          17.5052   71.5318   -6.2909 N.ar    1  UNL1       -0.2551
     18 N          15.8981   72.2587   -4.6987 N.ar    1  UNL1       -0.2743
     19 C          16.2857   72.2042   -6.0436 C.ar    1  UNL1        0.3323
     20 C          18.2267   70.9829   -5.2364 C.ar    1  UNL1        0.0869
     21 C          17.8440   71.0446   -3.9593 C.ar    1  UNL1        0.0795
     22 C          16.5813   71.7297   -3.6151 C.ar    1  UNL1        0.2626
     23 H          15.0519   72.7226   -4.5023 H       1  UNL1        0.1734
     24 O          21.2282   72.2271   -3.7372 O.3     1  UNL1       -0.2703
     25 P          21.6831   70.8668   -2.9917 P.3     1  UNL1        0.2208
     26 O          23.2875   70.8489   -3.1989 O.co2   1  UNL1       -0.4371
     27 O          20.9817   69.6329   -3.4809 O.2     1  UNL1       -0.5170
     28 O          21.4784   71.1741   -1.4205 O.3     1  UNL1       -0.2858
     29 O          23.0659   72.7447   -0.6271 O.3     1  UNL1       -0.3258
     30 O          21.4325   71.5773    2.9813 O.3     1  UNL1       -0.3794
     31 O          20.8278   74.1793    1.9267 O.3     1  UNL1       -0.3794
     32 O          21.8548   69.6232    0.8878 O.3     1  UNL1       -0.3775
     33 C          21.4207   71.8874    1.5852 C.3     1  UNL1        0.1715
     34 C          21.8606   73.3426    1.4133 C.3     1  UNL1        0.1694
     35 C          22.3785   70.9465    0.8567 C.3     1  UNL1        0.1967
     36 C          22.1296   73.6696   -0.0617 C.3     1  UNL1        0.1761
     37 C          22.6153   71.3893   -0.5883 C.3     1  UNL1        0.2704
     38 H          20.8260   72.1709    3.4495 H       1  UNL1        0.2105
     39 H          20.6674   73.9623    2.8585 H       1  UNL1        0.2105
     40 H          21.7096   69.3546    1.8079 H       1  UNL1        0.2106
     41 O          21.6744   76.0143   -0.1245 O.3     1  UNL1       -0.3794
     42 C          22.7199   75.0667   -0.2394 C.3     1  UNL1        0.1693
     43 H          22.0354   76.9082   -0.2352 H       1  UNL1        0.2105
@<TRIPOS>UNITY_ATOM_ATTR
2 1
charge -1
26 1
charge -1
@<TRIPOS>BOND
     1    25    28    1
     2    25    24    1
     3    25    26    1
     4    25    27    2
     5     1     4    1
     6     1    24    1
     7     1     2    1
     8     1     3    2
     9     6    11    1
    10     6    12    1
    11    29    36    1
    12    29    37    1
    13     7     9    1
    14     7    13    1
    15     8    10    1
    16     8    14    1
    17    28    37    1
    18     4     5    1
    19    30    33    1
    20    30    38    1
    21    31    34    1
    22    31    39    1
    23    32    35    1
    24    32    40    1
    25    41    42    1
    26    41    43    1
    27    15    19    2
    28    16    22    2
    29    17    12    1
    30    17    19   ar
    31    17    20   ar
    32    18    19   ar
    33    18    22   ar
    34    18    23    1
    35     9    10    1
    36     9    11    1
    37    10    12    1
    38    11     5    1
    39    33    34    1
    40    33    35    1
    41    34    36    1
    42    35    37    1
    43    36    42    1
    44    20    21   ar
    45    21    22   ar
@<TRIPOS>MOLECULE
*****
 43 45 0 0 0
SMALL
GASTEIGER

@<TRIPOS>ATOM
      1 P          19.3655   69.7439   -3.2936 P.3     1  UNL1        0.2189
      2 O          19.2804   69.4521   -4.8826 O.co2   1  UNL1       -0.4371
      3 O          18.5488   68.8231   -2.4355 O.2     1  UNL1       -0.5170
      4 O          19.0130   71.3181   -3.1683 O.3     1  UNL1       -0.3112
      5 C          17.8482   71.8035   -3.8128 C.3     1  UNL1        0.1811
      6 O          18.9099   73.3494   -5.3149 O.3     1  UNL1       -0.3308
      7 O          16.9359   75.3776   -4.3246 O.3     1  UNL1       -0.3794
      8 O          15.8670   74.6274   -6.7185 O.3     1  UNL1       -0.3779
      9 C          16.7573   73.9804   -4.5506 C.3     1  UNL1        0.1713
     10 C          16.6786   73.6938   -6.0356 C.3     1  UNL1        0.1895
     11 C          18.0483   73.2728   -4.1581 C.3     1  UNL1        0.1764
     12 C          18.1380   73.7746   -6.4499 C.3     1  UNL1        0.2383
     13 H          16.1241   75.8507   -4.5678 H       1  UNL1        0.2105
     14 H          14.9485   74.5365   -6.4205 H       1  UNL1        0.2106
     15 O          17.8576   74.5279   -9.1577 O.2     1  UNL1       -0.2464
     16 O          19.3211   70.4177  -10.6429 O.2     1  UNL1       -0.2670
     17 N          18.4390   72.9212   -7.5646 N.ar    1  UNL1       -0.2551
     18 N          18.5867   72.4808   -9.8950 N.ar    1  UNL1       -0.2743
     19 C          18.2628   73.3959   -8.8853 C.ar    1  UNL1        0.3323
     20 C          18.9037   71.6294   -7.3428 C.ar    1  UNL1        0.0869
     21 C          19.2069   70.7687   -8.3166 C.ar    1  UNL1        0.0795
     22 C          19.0508   71.1860   -9.7250 C.ar    1  UNL1        0.2626
     23 H          18.4715   72.7893  -10.8230 H       1  UNL1        0.1734
     24 O          20.9548   69.7031   -3.0011 O.3     1  UNL1       -0.2703
     25 P          22.0488   70.8898   -2.9131 P.3     1  UNL1        0.2208
     26 O          21.5522   71.9368   -4.0421 O.co2   1  UNL1       -0.4371
     27 O          23.4689   70.4309   -3.0759 O.2     1  UNL1       -0.5170
     28 O          21.7406   71.6263   -1.5104 O.3     1  UNL1       -0.2858
     29 O          23.3037   72.9899   -0.3641 O.3     1  UNL1       -0.3258
     30 O          21.0463   71.7258    2.8540 O.3     1  UNL1       -0.3794
     31 O          20.8162   74.4382    1.9388 O.3     1  UNL1       -0.3794
     32 O          21.6337   69.8916    0.6929 O.3     1  UNL1       -0.3775
     33 C          21.2745   72.1317    1.5018 C.3     1  UNL1        0.1715
     34 C          21.8477   73.5502    1.5172 C.3     1  UNL1        0.1694
     35 C          22.2573   71.1618    0.8486 C.3     1  UNL1        0.1967
     36 C          22.3660   73.9533    0.1302 C.3     1  UNL1        0.1761
     37 C          22.7483   71.6808   -0.5041 C.3     1  UNL1        0.2704
     38 H          20.4227   72.3372    3.2744 H       1  UNL1        0.2105
     39 H          20.4973   74.1723    2.8156 H       1  UNL1        0.2105
     40 H          21.3276   69.5739    1.5562 H       1  UNL1        0.2106
     41 O          24.4064   75.0967    0.6189 O.3     1  UNL1       -0.3794
     42 C          23.0837   75.3011    0.1573 C.3     1  UNL1        0.1693
     43 H          24.8753   75.9460    0.6411 H       1  UNL1        0.2105
@<TRIPOS>UNITY_ATOM_ATTR
2 1
charge -1
26 1
charge -1
@<TRIPOS>BOND
     1    25    28    1
     2    25    24    1
     3    25    26    1
     4    25    27    2
     5     1     4    1
     6     1    24    1
     7     1     2    1
     8     1     3    2
     9     6    11    1
    10     6    12    1
    11    29    36    1
    12    29    37    1
    13     7     9    1
    14     7    13    1
    15     8    10    1
    16     8    14    1
    17    28    37    1
    18     4     5    1
    19    30    33    1
    20    30    38    1
    21    31    34    1
    22    31    39    1
    23    32    35    1
    24    32    40    1
    25    41    42    1
    26    41    43    1
    27    15    19    2
    28    16    22    2
    29    17    12    1
    30    17    19   ar
    31    17    20   ar
    32    18    19   ar
    33    18    22   ar
    34    18    23    1
    35     9    10    1
    36     9    11    1
    37    10    12    1
    38    11     5    1
    39    33    34    1
    40    33    35    1
    41    34    36    1
    42    35    37    1
    43    36    42    1
    44    20    21   ar
    45    21    22   ar
@<TRIPOS>MOLECULE
*****
 43 45 0 0 0
SMALL
GASTEIGER

@<TRIPOS>ATOM
      1 P          21.1220   70.6303   -1.8277 P.3     1  UNL1        0.2189
      2 O          20.9086   69.9941   -0.3556 O.co2   1  UNL1       -0.4371
      3 O          21.8751   69.7606   -2.7909 O.2     1  UNL1       -0.5170
      4 O          21.7746   72.0812   -1.5330 O.3     1  UNL1       -0.3112
      5 C          21.7280   72.5874   -0.2103 C.3     1  UNL1        0.1811
      6 O          21.2222   74.7268    0.7599 O.3     1  UNL1       -0.3308
      7 O          23.8077   75.6688   -0.4313 O.3     1  UNL1       -0.3794
      8 O          24.4738   75.2503    2.1798 O.3     1  UNL1       -0.3779
      9 C          23.4829   74.3979    0.1297 C.3     1  UNL1        0.1713
     10 C          23.4104   74.4926    1.6394 C.3     1  UNL1        0.1895
     11 C          22.0396   74.0775   -0.2385 C.3     1  UNL1        0.1764
     12 C          22.0576   75.1513    1.8493 C.3     1  UNL1        0.2383
     13 H          24.7251   75.8949   -0.2097 H       1  UNL1        0.2105
     14 H          25.3125   74.7898    2.0208 H       1  UNL1        0.2106
     15 O          22.2412   72.5673    2.9750 O.2     1  UNL1       -0.2464
     16 O          19.6622   73.7648    6.6020 O.2     1  UNL1       -0.2670
     17 N          21.4441   74.7603    3.0871 N.ar    1  UNL1       -0.2551
     18 N          20.9570   73.1657    4.7801 N.ar    1  UNL1       -0.2743
     19 C          21.5966   73.4375    3.5640 C.ar    1  UNL1        0.3323
     20 C          20.7014   75.6839    3.8146 C.ar    1  UNL1        0.0869
     21 C          20.0967   75.4085    4.9720 C.ar    1  UNL1        0.0795
     22 C          20.2067   74.0493    5.5398 C.ar    1  UNL1        0.2626
     23 H          21.0492   72.2505    5.1317 H       1  UNL1        0.1734
     24 O          19.6160   70.9959   -2.2875 O.3     1  UNL1       -0.2703
     25 P          18.4816   70.1027   -3.0142 P.3     1  UNL1        0.2208
     26 O          17.1184   70.9226   -2.7193 O.co2   1  UNL1       -0.4371
     27 O          18.4500   68.6687   -2.5711 O.2     1  UNL1       -0.5170
     28 O          18.7481   70.3093   -4.5926 O.3     1  UNL1       -0.2858
     29 O          19.2784   72.4800   -5.3821 O.3     1  UNL1       -0.3258
     30 O          18.0539   70.7670   -8.9341 O.3     1  UNL1       -0.3794
     31 O          20.8433   71.2971   -8.5031 O.3     1  UNL1       -0.3794
     32 O          16.6716   70.1300   -6.4718 O.3     1  UNL1       -0.3775
     33 C          18.6694   70.7914   -7.6434 C.3     1  UNL1        0.1715
     34 C          19.8066   71.8145   -7.6737 C.3     1  UNL1        0.1694
     35 C          17.6243   71.1800   -6.5993 C.3     1  UNL1        0.1967
     36 C          20.3401   72.0917   -6.2618 C.3     1  UNL1        0.1761
     37 C          18.2655   71.4817   -5.2436 C.3     1  UNL1        0.2704
     38 H          18.7120   70.5205   -9.6017 H       1  UNL1        0.2105
     39 H          20.4932   71.1259   -9.3915 H       1  UNL1        0.2105
     40 H          16.2727   69.9487   -7.3366 H       1  UNL1        0.2106
     41 O          22.6054   72.7108   -6.7023 O.3     1  UNL1       -0.3794
     42 C          21.3656   73.2232   -6.2498 C.3     1  UNL1        0.1693
     43 H          23.2678   73.4200   -6.7003 H       1  UNL1        0.2105
@<TRIPOS>UNITY_ATOM_ATTR
2 1
charge -1
26 1
charge -1
@<TRIPOS>BOND
     1    25    28    1
     2    25    24    1
     3    25    26    1
     4    25    27    2
     5     1     4    1
     6     1    24    1
     7     1     2    1
     8     1     3    2
     9     6    11    1
    10     6    12    1
    11    29    36    1
    12    29    37    1
    13     7     9    1
    14     7    13    1
    15     8    10    1
    16     8    14    1
    17    28    37    1
    18     4     5    1
    19    30    33    1
    20    30    38    1
    21    31    34    1
    22    31    39    1
    23    32    35    1
    24    32    40    1
    25    41    42    1
    26    41    43    1
    27    15    19    2
    28    16    22    2
    29    17    12    1
    30    17    19   ar
    31    17    20   ar
    32    18    19   ar
    33    18    22   ar
    34    18    23    1
    35     9    10    1
    36     9    11    1
    37    10    12    1
    38    11     5    1
    39    33    34    1
    40    33    35    1
    41    34    36    1
    42    35    37    1
    43    36    42    1
    44    20    21   ar
    45    21    22   ar
@<TRIPOS>MOLECULE
*****
 43 45 0 0 0
SMALL
GASTEIGER

@<TRIPOS>ATOM
      1 P          22.5571   73.4645   -4.7584 P.3     1  UNL1        0.2189
      2 O          23.0051   74.4775   -5.9376 O.co2   1  UNL1       -0.4371
      3 O          23.6118   72.4885   -4.3266 O.2     1  UNL1       -0.5170
      4 O          21.1806   72.8145   -5.3068 O.3     1  UNL1       -0.3112
      5 C          20.9301   72.8385   -6.7013 C.3     1  UNL1        0.1811
      6 O          18.8510   71.6459   -6.8708 O.3     1  UNL1       -0.3308
      7 O          20.2763   69.8052   -8.7605 O.3     1  UNL1       -0.3794
      8 O          18.8650   71.4148  -10.4498 O.3     1  UNL1       -0.3779
      9 C          20.4211   71.2145   -8.5925 C.3     1  UNL1        0.1713
     10 C          19.2341   71.9401   -9.1910 C.3     1  UNL1        0.1895
     11 C          20.2707   71.5281   -7.1091 C.3     1  UNL1        0.1764
     12 C          18.1665   71.7248   -8.1318 C.3     1  UNL1        0.2383
     13 H          20.3689   69.5806   -9.7001 H       1  UNL1        0.2105
     14 H          19.5763   71.5767  -11.0890 H       1  UNL1        0.2106
     15 O          15.7888   71.6906   -6.6076 O.2     1  UNL1       -0.2464
     16 O          14.6078   75.9167   -8.0170 O.2     1  UNL1       -0.2670
     17 N          17.2195   72.8028   -8.0816 N.ar    1  UNL1       -0.2551
     18 N          15.2027   73.7949   -7.3105 N.ar    1  UNL1       -0.2743
     19 C          16.0564   72.6847   -7.2856 C.ar    1  UNL1        0.3323
     20 C          17.4487   73.9612   -8.8161 C.ar    1  UNL1        0.0869
     21 C          16.6241   75.0106   -8.8300 C.ar    1  UNL1        0.0795
     22 C          15.3862   74.9681   -8.0252 C.ar    1  UNL1        0.2626
     23 H          14.3859   73.7351   -6.7637 H       1  UNL1        0.1734
     24 O          22.0484   74.4640   -3.5943 O.3     1  UNL1       -0.2703
     25 P          20.8869   74.2952   -2.4828 P.3     1  UNL1        0.2208
     26 O          19.5454   74.1248   -3.3709 O.co2   1  UNL1       -0.4371
     27 O          20.8281   75.4108   -1.4799 O.2     1  UNL1       -0.5170
     28 O          21.1415   72.8348   -1.8446 O.3     1  UNL1       -0.2858
     29 O          22.8270   73.3301   -0.2539 O.3     1  UNL1       -0.3258
     30 O          22.0971   69.3948    0.7618 O.3     1  UNL1       -0.3794
     31 O          21.1983   71.4977    2.4990 O.3     1  UNL1       -0.3794
     32 O          22.0785   70.1954   -2.0199 O.3     1  UNL1       -0.3775
     33 C          21.7568   70.7088    0.3112 C.3     1  UNL1        0.1715
     34 C          22.1072   71.7020    1.4209 C.3     1  UNL1        0.1694
     35 C          22.5462   71.0210   -0.9587 C.3     1  UNL1        0.1967
     36 C          22.0216   73.1489    0.9167 C.3     1  UNL1        0.1761
     37 C          22.4330   72.4966   -1.3457 C.3     1  UNL1        0.2704
     38 H          21.5990   69.1901    1.5677 H       1  UNL1        0.2105
     39 H          21.2620   70.5802    2.8078 H       1  UNL1        0.2105
     40 H          22.1556   69.2638   -1.7628 H       1  UNL1        0.2106
     41 O          23.1885   73.4348    2.9819 O.3     1  UNL1       -0.3794
     42 C          22.5184   74.1482    1.9591 C.3     1  UNL1        0.1693
     43 H          23.5106   74.0581    3.6524 H       1  UNL1        0.2105
@<TRIPOS>UNITY_ATOM_ATTR
2 1
charge -1
26 1
charge -1
@<TRIPOS>BOND
     1    25    28    1
     2    25    24    1
     3    25    26    1
     4    25    27    2
     5     1     4    1
     6     1    24    1
     7     1     2    1
     8     1     3    2
     9     6    11    1
    10     6    12    1
    11    29    36    1
    12    29    37    1
    13     7     9    1
    14     7    13    1
    15     8    10    1
    16     8    14    1
    17    28    37    1
    18     4     5    1
    19    30    33    1
    20    30    38    1
    21    31    34    1
    22    31    39    1
    23    32    35    1
    24    32    40    1
    25    41    42    1
    26    41    43    1
    27    15    19    2
    28    16    22    2
    29    17    12    1
    30    17    19   ar
    31    17    20   ar
    32    18    19   ar
    33    18    22   ar
    34    18    23    1
    35     9    10    1
    36     9    11    1
    37    10    12    1
    38    11     5    1
    39    33    34    1
    40    33    35    1
    41    34    36    1
    42    35    37    1
    43    36    42    1
    44    20    21   ar
    45    21    22   ar
@<TRIPOS>MOLECULE
*****
 43 45 0 0 0
SMALL
GASTEIGER

@<TRIPOS>ATOM
      1 P          16.6423   72.3281   -2.6470 P.3     1  UNL1        0.2189
      2 O          16.6417   73.3201   -1.3690 O.co2   1  UNL1       -0.4371
      3 O          15.3886   71.5232   -2.8252 O.2     1  UNL1       -0.5170
      4 O          18.0066   71.4752   -2.4760 O.3     1  UNL1       -0.3112
      5 C          19.1458   72.1229   -1.9371 C.3     1  UNL1        0.1811
      6 O          21.5450   72.1999   -2.0463 O.3     1  UNL1       -0.3308
      7 O          21.4267   69.2584   -2.6163 O.3     1  UNL1       -0.3794
      8 O          22.0872   69.3253    0.0287 O.3     1  UNL1       -0.3779
      9 C          20.6026   70.0448   -1.7572 C.3     1  UNL1        0.1713
     10 C          21.3583   70.4152   -0.4981 C.3     1  UNL1        0.1895
     11 C          20.3987   71.4030   -2.4169 C.3     1  UNL1        0.1764
     12 C          22.2574   71.5373   -0.9888 C.3     1  UNL1        0.2383
     13 H          21.5707   68.3860   -2.2162 H       1  UNL1        0.2105
     14 H          21.4712   68.6381    0.3271 H       1  UNL1        0.2106
     15 O          21.5174   71.2414    1.7209 O.2     1  UNL1       -0.2464
     16 O          23.4511   75.2617    2.8781 O.2     1  UNL1       -0.2670
     17 N          22.5549   72.4912    0.0421 N.ar    1  UNL1       -0.2551
     18 N          22.4810   73.2433    2.2949 N.ar    1  UNL1       -0.2743
     19 C          22.1374   72.2478    1.3714 C.ar    1  UNL1        0.3323
     20 C          23.2536   73.6526   -0.2691 C.ar    1  UNL1        0.0869
     21 C          23.5722   74.5927    0.6230 C.ar    1  UNL1        0.0795
     22 C          23.1731   74.4154    2.0341 C.ar    1  UNL1        0.2626
     23 H          22.2001   73.0955    3.2272 H       1  UNL1        0.1734
     24 O          16.9856   73.3198   -3.8766 O.3     1  UNL1       -0.2703
     25 P          16.9370   73.0849   -5.4752 P.3     1  UNL1        0.2208
     26 O          16.2930   74.4603   -6.0329 O.co2   1  UNL1       -0.4371
     27 O          16.2030   71.8435   -5.8927 O.2     1  UNL1       -0.5170
     28 O          18.4807   73.1385   -5.9431 O.3     1  UNL1       -0.2858
     29 O          18.9826   71.0038   -6.8420 O.3     1  UNL1       -0.3258
     30 O          22.6890   72.7786   -7.2473 O.3     1  UNL1       -0.3794
     31 O          21.0791   72.3092   -9.5788 O.3     1  UNL1       -0.3794
     32 O          21.0804   73.3141   -4.9010 O.3     1  UNL1       -0.3775
     33 C          21.2595   72.7357   -7.2322 C.3     1  UNL1        0.1715
     34 C          20.7982   71.7435   -8.3015 C.3     1  UNL1        0.1694
     35 C          20.7880   72.2927   -5.8485 C.3     1  UNL1        0.1967
     36 C          19.2993   71.4426   -8.1683 C.3     1  UNL1        0.1761
     37 C          19.2923   71.9717   -5.8374 C.3     1  UNL1        0.2704
     38 H          22.9949   73.0596   -8.1230 H       1  UNL1        0.2105
     39 H          22.0287   72.4948   -9.6498 H       1  UNL1        0.2105
     40 H          22.0301   73.5080   -4.9175 H       1  UNL1        0.2106
     41 O          18.6825   70.8986  -10.4116 O.3     1  UNL1       -0.3794
     42 C          18.8507   70.3380   -9.1226 C.3     1  UNL1        0.1693
     43 H          18.3973   70.2070  -11.0297 H       1  UNL1        0.2105
@<TRIPOS>UNITY_ATOM_ATTR
2 1
charge -1
26 1
charge -1
@<TRIPOS>BOND
     1    25    28    1
     2    25    24    1
     3    25    26    1
     4    25    27    2
     5     1     4    1
     6     1    24    1
     7     1     2    1
     8     1     3    2
     9     6    11    1
    10     6    12    1
    11    29    36    1
    12    29    37    1
    13     7     9    1
    14     7    13    1
    15     8    10    1
    16     8    14    1
    17    28    37    1
    18     4     5    1
    19    30    33    1
    20    30    38    1
    21    31    34    1
    22    31    39    1
    23    32    35    1
    24    32    40    1
    25    41    42    1
    26    41    43    1
    27    15    19    2
    28    16    22    2
    29    17    12    1
    30    17    19   ar
    31    17    20   ar
    32    18    19   ar
    33    18    22   ar
    34    18    23    1
    35     9    10    1
    36     9    11    1
    37    10    12    1
    38    11     5    1
    39    33    34    1
    40    33    35    1
    41    34    36    1
    42    35    37    1
    43    36    42    1
    44    20    21   ar
    45    21    22   ar
