@<TRIPOS>MOLECULE
GDU
 43 45 0 0 0
SMALL
GASTEIGER

@<TRIPOS>ATOM
      1 P          20.9087   71.4911   -2.1705 P.3     1  UNL1        0.2189
      2 O          22.1241   70.7799   -2.6250 O.2     1  UNL1       -0.5170
      3 O          21.2257   73.0642   -2.0375 O.3     1  UNL1       -0.4371
      4 O          19.7264   71.2703   -3.2382 O.3     1  UNL1       -0.3112
      5 C          18.5679   70.8818   -2.4984 C.3     1  UNL1        0.1811
      6 C          16.9582   70.5340   -5.6945 C.3     1  UNL1        0.2383
      7 C          16.9660   69.1005   -5.1047 C.3     1  UNL1        0.1895
      8 O          15.8335   68.3560   -5.5592 O.3     1  UNL1       -0.3779
      9 C          16.8720   69.3754   -3.5813 C.3     1  UNL1        0.1713
     10 C          17.3578   70.8292   -3.4327 C.3     1  UNL1        0.1764
     11 O          17.7306   71.2946   -4.7414 O.3     1  UNL1       -0.3308
     12 O          15.5219   69.2436   -3.1322 O.3     1  UNL1       -0.3794
     13 H          15.8980   67.4779   -5.1583 H       1  UNL1        0.2106
     14 H          15.2570   68.3301   -3.3056 H       1  UNL1        0.2105
     15 N          17.5975   70.5559   -7.0112 N.ar    1  UNL1       -0.2551
     16 C          16.8432   70.4616   -8.1204 C.ar    1  UNL1        0.3323
     17 N          17.4058   70.4827   -9.3431 N.ar    1  UNL1       -0.2743
     18 C          18.7420   70.5894   -9.4750 C.ar    1  UNL1        0.2626
     19 C          19.5496   70.6837   -8.3153 C.ar    1  UNL1        0.0795
     20 C          18.9592   70.6643   -7.1014 C.ar    1  UNL1        0.0869
     21 O          15.6365   70.3654   -8.0172 O.2     1  UNL1       -0.2464
     22 O          19.2525   70.6038  -10.5812 O.2     1  UNL1       -0.2670
     23 H          16.8458   70.4180  -10.1330 H       1  UNL1        0.1734
     24 O          20.4545   70.9136   -0.7378 O.3     1  UNL1       -0.2703
     25 P          21.7387   70.9992    0.2283 P.3     1  UNL1        0.2208
     26 O          21.7057   69.8776    1.1928 O.2     1  UNL1       -0.5170
     27 O          23.0820   70.9068   -0.6556 O.3     1  UNL1       -0.4371
     28 O          21.7186   72.3961    1.0273 O.3     1  UNL1       -0.2858
     29 C          21.7914   72.0797    2.4181 C.3     1  UNL1        0.2704
     30 C          21.3729   73.2997    3.2403 C.3     1  UNL1        0.1967
     31 C          22.3009   74.4706    2.9026 C.3     1  UNL1        0.1715
     32 C          23.7522   74.0182    3.0992 C.3     1  UNL1        0.1694
     33 C          23.9909   72.7439    2.2854 C.3     1  UNL1        0.1761
     34 O          20.0241   73.6496    2.9249 O.3     1  UNL1       -0.3775
     35 O          22.0177   75.5726    3.7675 O.3     1  UNL1       -0.3794
     36 O          23.9883   73.7580    4.4836 O.3     1  UNL1       -0.3794
     37 O          23.1270   71.7074    2.7497 O.3     1  UNL1       -0.3258
     38 H          19.4780   72.8830    3.1461 H       1  UNL1        0.2106
     39 H          21.0949   75.8148    3.6192 H       1  UNL1        0.2105
     40 H          23.8208   74.5839    4.9561 H       1  UNL1        0.2105
     41 C          25.4472   72.3025    2.4475 C.3     1  UNL1        0.1693
     42 O          25.5241   70.8782    2.3679 O.3     1  UNL1       -0.3794
     43 H          26.4559   70.6418    2.4737 H       1  UNL1        0.2105
@<TRIPOS>BOND
     1    15    16   ar
     2    15    20   ar
     3    15     6    1
     4    16    17   ar
     5    16    21    2
     6    17    18   ar
     7    17    23    1
     8    18    19   ar
     9    18    22    2
    10    19    20   ar
    11     6     7    1
    12     6    11    1
    13     7     8    1
    14     7     9    1
    15     8    13    1
    16     9    10    1
    17     9    12    1
    18    10    11    1
    19    10     5    1
    20    12    14    1
    21     5     4    1
    22     4     1    1
    23     1     2    2
    24     1     3    1
    25     1    24    1
    26    24    25    1
    27    25    26    2
    28    25    27    1
    29    25    28    1
    30    28    29    1
    31    29    30    1
    32    29    37    1
    33    30    31    1
    34    30    34    1
    35    31    32    1
    36    31    35    1
    37    32    33    1
    38    32    36    1
    39    33    41    1
    40    33    37    1
    41    41    42    1
    42    34    38    1
    43    35    39    1
    44    36    40    1
    45    42    43    1
@<TRIPOS>MOLECULE
GDU
 43 45 0 0 0
SMALL
GASTEIGER

@<TRIPOS>ATOM
      1 P          20.8645   71.1477   -2.4743 P.3     1  UNL1        0.2189
      2 O          20.6338   70.7947   -1.0559 O.2     1  UNL1       -0.5170
      3 O          21.3146   69.8330   -3.2880 O.3     1  UNL1       -0.4371
      4 O          19.5079   71.7336   -3.1093 O.3     1  UNL1       -0.3112
      5 C          18.4244   71.1046   -2.4232 C.3     1  UNL1        0.1811
      6 C          16.8923   70.5938   -5.6355 C.3     1  UNL1        0.2383
      7 C          16.9888   69.1743   -5.0203 C.3     1  UNL1        0.1895
      8 O          15.9171   68.3464   -5.4777 O.3     1  UNL1       -0.3779
      9 C          16.8525   69.4676   -3.5035 C.3     1  UNL1        0.1713
     10 C          17.2354   70.9536   -3.3738 C.3     1  UNL1        0.1764
     11 O          17.5959   71.4215   -4.6850 O.3     1  UNL1       -0.3308
     12 O          15.5078   69.2510   -3.0716 O.3     1  UNL1       -0.3794
     13 H          16.0351   67.4816   -5.0604 H       1  UNL1        0.2106
     14 H          15.3086   68.3187   -3.2325 H       1  UNL1        0.2105
     15 N          17.5490   70.6375   -6.9430 N.ar    1  UNL1       -0.2551
     16 C          16.8173   70.4933   -8.0619 C.ar    1  UNL1        0.3323
     17 N          17.3961   70.5330   -9.2766 N.ar    1  UNL1       -0.2743
     18 C          18.7266   70.7090   -9.3904 C.ar    1  UNL1        0.2626
     19 C          19.5108   70.8565   -8.2201 C.ar    1  UNL1        0.0795
     20 C          18.9043   70.8170   -7.0147 C.ar    1  UNL1        0.0869
     21 O          15.6159   70.3344   -7.9752 O.2     1  UNL1       -0.2464
     22 O          19.2520   70.7403  -10.4892 O.2     1  UNL1       -0.2670
     23 H          16.8520   70.4315  -10.0737 H       1  UNL1        0.1734
     24 O          22.0260   72.2588   -2.5677 O.3     1  UNL1       -0.2703
     25 P          22.4891   72.3214   -4.1077 P.3     1  UNL1        0.2208
     26 O          23.9512   72.1115   -4.1918 O.2     1  UNL1       -0.5170
     27 O          21.7332   71.1698   -4.9424 O.3     1  UNL1       -0.4371
     28 O          22.1163   73.7609   -4.7233 O.3     1  UNL1       -0.2858
     29 C          21.2670   73.5244   -5.8469 C.3     1  UNL1        0.2704
     30 C          22.0717   73.6899   -7.1370 C.3     1  UNL1        0.1967
     31 C          22.6505   75.1073   -7.1853 C.3     1  UNL1        0.1715
     32 C          21.5068   76.1103   -6.9967 C.3     1  UNL1        0.1694
     33 C          20.7457   75.7621   -5.7151 C.3     1  UNL1        0.1761
     34 O          23.1350   72.7360   -7.1637 O.3     1  UNL1       -0.3775
     35 O          23.2804   75.3259   -8.4494 O.3     1  UNL1       -0.3794
     36 O          20.6227   76.0431   -8.1165 O.3     1  UNL1       -0.3794
     37 O          20.1865   74.4543   -5.8277 O.3     1  UNL1       -0.3258
     38 H          22.7257   71.8609   -7.1244 H       1  UNL1        0.2106
     39 H          23.9824   74.6678   -8.5298 H       1  UNL1        0.2105
     40 H          21.1448   76.2633   -8.8989 H       1  UNL1        0.2105
     41 C          19.6222   76.7786   -5.4991 C.3     1  UNL1        0.1693
     42 O          18.7487   76.7691   -6.6295 O.3     1  UNL1       -0.3794
     43 H          18.0562   77.4209   -6.4535 H       1  UNL1        0.2105
@<TRIPOS>BOND
     1    15    16   ar
     2    15    20   ar
     3    15     6    1
     4    16    17   ar
     5    16    21    2
     6    17    18   ar
     7    17    23    1
     8    18    19   ar
     9    18    22    2
    10    19    20   ar
    11     6     7    1
    12     6    11    1
    13     7     8    1
    14     7     9    1
    15     8    13    1
    16     9    10    1
    17     9    12    1
    18    10    11    1
    19    10     5    1
    20    12    14    1
    21     5     4    1
    22     4     1    1
    23     1     2    2
    24     1     3    1
    25     1    24    1
    26    24    25    1
    27    25    26    2
    28    25    27    1
    29    25    28    1
    30    28    29    1
    31    29    30    1
    32    29    37    1
    33    30    31    1
    34    30    34    1
    35    31    32    1
    36    31    35    1
    37    32    33    1
    38    32    36    1
    39    33    41    1
    40    33    37    1
    41    41    42    1
    42    34    38    1
    43    35    39    1
    44    36    40    1
    45    42    43    1
@<TRIPOS>MOLECULE
GDU
 43 45 0 0 0
SMALL
GASTEIGER

@<TRIPOS>ATOM
      1 P          20.5487   71.4425   -2.8818 P.3     1  UNL1        0.2189
      2 O          20.5867   71.9076   -4.2860 O.2     1  UNL1       -0.5170
      3 O          20.5109   72.7152   -1.8960 O.3     1  UNL1       -0.4371
      4 O          19.2350   70.5442   -2.6489 O.3     1  UNL1       -0.3112
      5 C          18.1441   71.4472   -2.4619 C.3     1  UNL1        0.1811
      6 C          16.8107   70.5788   -5.6861 C.3     1  UNL1        0.2383
      7 C          17.0520   69.2174   -4.9853 C.3     1  UNL1        0.1895
      8 O          16.1056   68.2415   -5.4272 O.3     1  UNL1       -0.3779
      9 C          16.8226   69.5746   -3.4936 C.3     1  UNL1        0.1713
     10 C          17.0198   71.1009   -3.4397 C.3     1  UNL1        0.1764
     11 O          17.3728   71.5367   -4.7640 O.3     1  UNL1       -0.3308
     12 O          15.4974   69.2202   -3.0932 O.3     1  UNL1       -0.3794
     13 H          16.3098   67.4217   -4.9560 H       1  UNL1        0.2106
     14 H          15.4175   68.2632   -3.2051 H       1  UNL1        0.2105
     15 N          17.5082   70.6303   -6.9720 N.ar    1  UNL1       -0.2551
     16 C          16.8163   70.4640   -8.1131 C.ar    1  UNL1        0.3323
     17 N          17.4329   70.5102   -9.3087 N.ar    1  UNL1       -0.2743
     18 C          18.7622   70.7152   -9.3807 C.ar    1  UNL1        0.2626
     19 C          19.5048   70.8863   -8.1868 C.ar    1  UNL1        0.0795
     20 C          18.8608   70.8396   -7.0013 C.ar    1  UNL1        0.0869
     21 O          15.6166   70.2787   -8.0640 O.2     1  UNL1       -0.2464
     22 O          19.3220   70.7525  -10.4623 O.2     1  UNL1       -0.2670
     23 H          16.9172   70.3924  -10.1223 H       1  UNL1        0.1734
     24 O          21.8625   70.5647   -2.5724 O.3     1  UNL1       -0.2703
     25 P          23.0630   71.6013   -2.3005 P.3     1  UNL1        0.2208
     26 O          24.3584   70.9334   -2.5552 O.2     1  UNL1       -0.5170
     27 O          22.9107   72.8682   -3.2833 O.3     1  UNL1       -0.4371
     28 O          23.0068   72.1002   -0.7714 O.3     1  UNL1       -0.2858
     29 C          23.1706   70.9426    0.0490 C.3     1  UNL1        0.2704
     30 C          21.9635   70.8018    0.9777 C.3     1  UNL1        0.1967
     31 C          21.8473   72.0632    1.8390 C.3     1  UNL1        0.1715
     32 C          23.1879   72.3009    2.5432 C.3     1  UNL1        0.1694
     33 C          24.3027   72.3300    1.4947 C.3     1  UNL1        0.1761
     34 O          20.7766   70.6413    0.1988 O.3     1  UNL1       -0.3775
     35 O          20.8157   71.8867    2.8122 O.3     1  UNL1       -0.3794
     36 O          23.4307   71.2474    3.4766 O.3     1  UNL1       -0.3794
     37 O          24.3623   71.0738    0.8205 O.3     1  UNL1       -0.3258
     38 H          20.8968   69.8417   -0.3313 H       1  UNL1        0.2106
     39 H          19.9965   71.7288    2.3261 H       1  UNL1        0.2105
     40 H          22.7033   71.2634    4.1122 H       1  UNL1        0.2105
     41 C          25.6419   72.6010    2.1839 C.3     1  UNL1        0.1693
     42 O          25.4281   73.4256    3.3308 O.3     1  UNL1       -0.3794
     43 H          26.2941   73.5718    3.7358 H       1  UNL1        0.2105
@<TRIPOS>BOND
     1    15    16   ar
     2    15    20   ar
     3    15     6    1
     4    16    17   ar
     5    16    21    2
     6    17    18   ar
     7    17    23    1
     8    18    19   ar
     9    18    22    2
    10    19    20   ar
    11     6     7    1
    12     6    11    1
    13     7     8    1
    14     7     9    1
    15     8    13    1
    16     9    10    1
    17     9    12    1
    18    10    11    1
    19    10     5    1
    20    12    14    1
    21     5     4    1
    22     4     1    1
    23     1     2    2
    24     1     3    1
    25     1    24    1
    26    24    25    1
    27    25    26    2
    28    25    27    1
    29    25    28    1
    30    28    29    1
    31    29    30    1
    32    29    37    1
    33    30    31    1
    34    30    34    1
    35    31    32    1
    36    31    35    1
    37    32    33    1
    38    32    36    1
    39    33    41    1
    40    33    37    1
    41    41    42    1
    42    34    38    1
    43    35    39    1
    44    36    40    1
    45    42    43    1
@<TRIPOS>MOLECULE
GDU
 43 45 0 0 0
SMALL
GASTEIGER

@<TRIPOS>ATOM
      1 P          20.4523   72.0900   -2.0130 P.3     1  UNL1        0.2189
      2 O          21.8351   72.6054   -2.1218 O.2     1  UNL1       -0.5170
      3 O          19.4104   73.2909   -2.2686 O.3     1  UNL1       -0.4371
      4 O          20.2213   70.9366   -3.1099 O.3     1  UNL1       -0.3112
      5 C          19.1422   70.1278   -2.6389 C.3     1  UNL1        0.1811
      6 C          17.3122   70.3825   -5.7233 C.3     1  UNL1        0.2383
      7 C          17.0611   68.9310   -5.2406 C.3     1  UNL1        0.1895
      8 O          15.7759   68.4686   -5.6621 O.3     1  UNL1       -0.3779
      9 C          17.1141   69.0877   -3.6985 C.3     1  UNL1        0.1713
     10 C          17.8946   70.3975   -3.4821 C.3     1  UNL1        0.1764
     11 O          18.2779   70.8896   -4.7779 O.3     1  UNL1       -0.3308
     12 O          15.7941   69.1895   -3.1610 O.3     1  UNL1       -0.3794
     13 H          15.6826   67.5643   -5.3314 H       1  UNL1        0.2106
     14 H          15.3383   68.3653   -3.3796 H       1  UNL1        0.2105
     15 N          17.8648   70.3892   -7.0788 N.ar    1  UNL1       -0.2551
     16 C          17.0400   70.5035   -8.1347 C.ar    1  UNL1        0.3323
     17 N          17.5227   70.5159   -9.3911 N.ar    1  UNL1       -0.2743
     18 C          18.8466   70.4033   -9.6121 C.ar    1  UNL1        0.2626
     19 C          19.7269   70.2764   -8.5098 C.ar    1  UNL1        0.0795
     20 C          19.2166   70.2711   -7.2599 C.ar    1  UNL1        0.0869
     21 O          15.8434   70.6064   -7.9510 O.2     1  UNL1       -0.2464
     22 O          19.2840   70.4096  -10.7493 O.2     1  UNL1       -0.2670
     23 H          16.9132   70.6035  -10.1412 H       1  UNL1        0.1734
     24 O          20.2205   71.4849   -0.5391 O.3     1  UNL1       -0.2703
     25 P          21.6773   71.2011    0.0832 P.3     1  UNL1        0.2208
     26 O          21.5863   70.1026    1.0702 O.2     1  UNL1       -0.5170
     27 O          22.6914   70.7804   -1.0953 O.3     1  UNL1       -0.4371
     28 O          22.2209   72.5312    0.8079 O.3     1  UNL1       -0.2858
     29 C          23.6454   72.5059    0.7074 C.3     1  UNL1        0.2704
     30 C          24.2576   72.7479    2.0880 C.3     1  UNL1        0.1967
     31 C          23.7767   74.1030    2.6161 C.3     1  UNL1        0.1715
     32 C          24.0884   75.1763    1.5671 C.3     1  UNL1        0.1694
     33 C          23.4867   74.7507    0.2255 C.3     1  UNL1        0.1761
     34 O          23.8476   71.7113    2.9817 O.3     1  UNL1       -0.3775
     35 O          24.4536   74.4102    3.8367 O.3     1  UNL1       -0.3794
     36 O          25.5034   75.3210    1.4373 O.3     1  UNL1       -0.3794
     37 O          24.0744   73.5210   -0.1971 O.3     1  UNL1       -0.3258
     38 H          24.1647   70.8783    2.6070 H       1  UNL1        0.2106
     39 H          24.2393   73.7053    4.4607 H       1  UNL1        0.2105
     40 H          25.8386   75.5832    2.3046 H       1  UNL1        0.2105
     41 C          23.7628   75.8323   -0.8214 C.3     1  UNL1        0.1693
     42 O          23.2085   75.4323   -2.0759 O.3     1  UNL1       -0.3794
     43 H          23.4031   76.1395   -2.7061 H       1  UNL1        0.2105
@<TRIPOS>BOND
     1    15    16   ar
     2    15    20   ar
     3    15     6    1
     4    16    17   ar
     5    16    21    2
     6    17    18   ar
     7    17    23    1
     8    18    19   ar
     9    18    22    2
    10    19    20   ar
    11     6     7    1
    12     6    11    1
    13     7     8    1
    14     7     9    1
    15     8    13    1
    16     9    10    1
    17     9    12    1
    18    10    11    1
    19    10     5    1
    20    12    14    1
    21     5     4    1
    22     4     1    1
    23     1     2    2
    24     1     3    1
    25     1    24    1
    26    24    25    1
    27    25    26    2
    28    25    27    1
    29    25    28    1
    30    28    29    1
    31    29    30    1
    32    29    37    1
    33    30    31    1
    34    30    34    1
    35    31    32    1
    36    31    35    1
    37    32    33    1
    38    32    36    1
    39    33    41    1
    40    33    37    1
    41    41    42    1
    42    34    38    1
    43    35    39    1
    44    36    40    1
    45    42    43    1
@<TRIPOS>MOLECULE
GDU
 43 45 0 0 0
SMALL
GASTEIGER

@<TRIPOS>ATOM
      1 P          21.0656   71.2371   -0.7626 P.3     1  UNL1        0.2189
      2 O          22.0358   71.1138   -1.8730 O.2     1  UNL1       -0.5170
      3 O          20.8113   72.7947   -0.4428 O.3     1  UNL1       -0.4371
      4 O          19.6774   70.5419   -1.1825 O.3     1  UNL1       -0.3112
      5 C          19.7758   70.2278   -2.5725 C.3     1  UNL1        0.1811
      6 C          17.5823   70.4886   -5.4094 C.3     1  UNL1        0.2383
      7 C          17.3618   69.0491   -4.8781 C.3     1  UNL1        0.1895
      8 O          16.0244   68.6119   -5.1300 O.3     1  UNL1       -0.3779
      9 C          17.6097   69.2228   -3.3570 C.3     1  UNL1        0.1713
     10 C          18.4392   70.5165   -3.2583 C.3     1  UNL1        0.1764
     11 O          18.6688   70.9842   -4.5987 O.3     1  UNL1       -0.3308
     12 O          16.3692   69.3616   -2.6613 O.3     1  UNL1       -0.3794
     13 H          15.9535   67.7139   -4.7772 H       1  UNL1        0.2106
     14 H          15.8721   68.5457   -2.8097 H       1  UNL1        0.2105
     15 N          17.9620   70.4664   -6.8230 N.ar    1  UNL1       -0.2551
     16 C          17.0076   70.4829   -7.7702 C.ar    1  UNL1        0.3323
     17 N          17.3299   70.4667   -9.0770 N.ar    1  UNL1       -0.2743
     18 C          18.6209   70.4235   -9.4584 C.ar    1  UNL1        0.2626
     19 C          19.6368   70.3999   -8.4717 C.ar    1  UNL1        0.0795
     20 C          19.2859   70.4212   -7.1682 C.ar    1  UNL1        0.0869
     21 O          15.8386   70.5223   -7.4414 O.2     1  UNL1       -0.2464
     22 O          18.9135   70.4040  -10.6410 O.2     1  UNL1       -0.2670
     23 H          16.6282   70.4834   -9.7471 H       1  UNL1        0.1734
     24 O          21.6560   70.5112    0.5477 O.3     1  UNL1       -0.2703
     25 P          23.0972   71.1672    0.8352 P.3     1  UNL1        0.2208
     26 O          23.8671   70.2878    1.7424 O.2     1  UNL1       -0.5170
     27 O          23.8961   71.3364   -0.5531 O.3     1  UNL1       -0.4371
     28 O          22.9041   72.6102    1.5210 O.3     1  UNL1       -0.2858
     29 C          22.7867   72.3890    2.9271 C.3     1  UNL1        0.2704
     30 C          21.4261   72.8939    3.4100 C.3     1  UNL1        0.1967
     31 C          21.3039   74.3859    3.0852 C.3     1  UNL1        0.1715
     32 C          22.5168   75.1162    3.6727 C.3     1  UNL1        0.1694
     33 C          23.7956   74.4434    3.1678 C.3     1  UNL1        0.1761
     34 O          20.3855   72.1719    2.7490 O.3     1  UNL1       -0.3775
     35 O          20.1029   74.9056    3.6596 O.3     1  UNL1       -0.3794
     36 O          22.4684   75.0521    5.0988 O.3     1  UNL1       -0.3794
     37 O          23.8299   73.0855    3.6047 O.3     1  UNL1       -0.3258
     38 H          20.5056   71.2395    2.9753 H       1  UNL1        0.2106
     39 H          19.3702   74.4108    3.2715 H       1  UNL1        0.2105
     40 H          21.6466   75.4811    5.3705 H       1  UNL1        0.2105
     41 C          25.0135   75.1865    3.7215 C.3     1  UNL1        0.1693
     42 O          24.6682   76.5515    3.9635 O.3     1  UNL1       -0.3794
     43 H          25.4606   76.9832    4.3114 H       1  UNL1        0.2105
@<TRIPOS>BOND
     1    15    16   ar
     2    15    20   ar
     3    15     6    1
     4    16    17   ar
     5    16    21    2
     6    17    18   ar
     7    17    23    1
     8    18    19   ar
     9    18    22    2
    10    19    20   ar
    11     6     7    1
    12     6    11    1
    13     7     8    1
    14     7     9    1
    15     8    13    1
    16     9    10    1
    17     9    12    1
    18    10    11    1
    19    10     5    1
    20    12    14    1
    21     5     4    1
    22     4     1    1
    23     1     2    2
    24     1     3    1
    25     1    24    1
    26    24    25    1
    27    25    26    2
    28    25    27    1
    29    25    28    1
    30    28    29    1
    31    29    30    1
    32    29    37    1
    33    30    31    1
    34    30    34    1
    35    31    32    1
    36    31    35    1
    37    32    33    1
    38    32    36    1
    39    33    41    1
    40    33    37    1
    41    41    42    1
    42    34    38    1
    43    35    39    1
    44    36    40    1
    45    42    43    1
@<TRIPOS>MOLECULE
GDU
 43 45 0 0 0
SMALL
GASTEIGER

@<TRIPOS>ATOM
      1 P          21.3397   71.4040   -2.9586 P.3     1  UNL1        0.2189
      2 O          20.9587   72.0206   -1.6685 O.2     1  UNL1       -0.5170
      3 O          22.7270   70.6056   -2.7827 O.3     1  UNL1       -0.4371
      4 O          20.1885   70.3828   -3.4264 O.3     1  UNL1       -0.3112
      5 C          19.0562   70.6241   -2.5896 C.3     1  UNL1        0.1811
      6 C          17.2362   70.5244   -5.6888 C.3     1  UNL1        0.2383
      7 C          17.1292   69.0832   -5.1282 C.3     1  UNL1        0.1895
      8 O          15.9011   68.4706   -5.5276 O.3     1  UNL1       -0.3779
      9 C          17.1530   69.3276   -3.5968 C.3     1  UNL1        0.1713
     10 C          17.7950   70.7197   -3.4500 C.3     1  UNL1        0.1764
     11 O          18.1375   71.1774   -4.7696 O.3     1  UNL1       -0.3308
     12 O          15.8249   69.3237   -3.0696 O.3     1  UNL1       -0.3794
     13 H          15.8971   67.5806   -5.1483 H       1  UNL1        0.2106
     14 H          15.4568   68.4469   -3.2442 H       1  UNL1        0.2105
     15 N          17.7968   70.5139   -7.0410 N.ar    1  UNL1       -0.2551
     16 C          16.9747   70.4507   -8.1032 C.ar    1  UNL1        0.3323
     17 N          17.4642   70.4432   -9.3571 N.ar    1  UNL1       -0.2743
     18 C          18.7937   70.4892   -9.5682 C.ar    1  UNL1        0.2626
     19 C          19.6720   70.5502   -8.4587 C.ar    1  UNL1        0.0795
     20 C          19.1543   70.5607   -7.2120 C.ar    1  UNL1        0.0869
     21 O          15.7731   70.4092   -7.9285 O.2     1  UNL1       -0.2464
     22 O          19.2380   70.4777  -10.7027 O.2     1  UNL1       -0.2670
     23 H          16.8561   70.4016  -10.1122 H       1  UNL1        0.1734
     24 O          21.5217   72.5551   -4.0695 O.3     1  UNL1       -0.2703
     25 P          22.8935   73.3230   -3.7254 P.3     1  UNL1        0.2208
     26 O          23.0427   73.4319   -2.2574 O.2     1  UNL1       -0.5170
     27 O          24.1368   72.4973   -4.3308 O.3     1  UNL1       -0.4371
     28 O          22.8625   74.7958   -4.3734 O.3     1  UNL1       -0.2858
     29 C          24.1553   75.3669   -4.1678 C.3     1  UNL1        0.2704
     30 C          24.0107   76.7078   -3.4463 C.3     1  UNL1        0.1967
     31 C          23.1369   77.6381   -4.2934 C.3     1  UNL1        0.1715
     32 C          23.7303   77.7173   -5.7046 C.3     1  UNL1        0.1694
     33 C          23.8944   76.2988   -6.2559 C.3     1  UNL1        0.1761
     34 O          23.3980   76.5021   -2.1721 O.3     1  UNL1       -0.3775
     35 O          23.1129   78.9408   -3.7062 O.3     1  UNL1       -0.3794
     36 O          25.0022   78.3649   -5.6524 O.3     1  UNL1       -0.3794
     37 O          24.7928   75.5616   -5.4280 O.3     1  UNL1       -0.3258
     38 H          23.9771   75.9067   -1.6770 H       1  UNL1        0.2106
     39 H          22.7450   78.8412   -2.8191 H       1  UNL1        0.2105
     40 H          24.8513   79.2497   -5.2950 H       1  UNL1        0.2105
     41 C          24.4545   76.3679   -7.6784 C.3     1  UNL1        0.1693
     42 O          24.3654   75.0788   -8.2876 O.3     1  UNL1       -0.3794
     43 H          24.7269   75.1656   -9.1804 H       1  UNL1        0.2105
@<TRIPOS>BOND
     1    15    16   ar
     2    15    20   ar
     3    15     6    1
     4    16    17   ar
     5    16    21    2
     6    17    18   ar
     7    17    23    1
     8    18    19   ar
     9    18    22    2
    10    19    20   ar
    11     6     7    1
    12     6    11    1
    13     7     8    1
    14     7     9    1
    15     8    13    1
    16     9    10    1
    17     9    12    1
    18    10    11    1
    19    10     5    1
    20    12    14    1
    21     5     4    1
    22     4     1    1
    23     1     2    2
    24     1     3    1
    25     1    24    1
    26    24    25    1
    27    25    26    2
    28    25    27    1
    29    25    28    1
    30    28    29    1
    31    29    30    1
    32    29    37    1
    33    30    31    1
    34    30    34    1
    35    31    32    1
    36    31    35    1
    37    32    33    1
    38    32    36    1
    39    33    41    1
    40    33    37    1
    41    41    42    1
    42    34    38    1
    43    35    39    1
    44    36    40    1
    45    42    43    1
@<TRIPOS>MOLECULE
GDU
 43 45 0 0 0
SMALL
GASTEIGER

@<TRIPOS>ATOM
      1 P          20.4851   71.0960   -1.7897 P.3     1  UNL1        0.2189
      2 O          20.3764   72.5717   -1.7845 O.2     1  UNL1       -0.5170
      3 O          20.8136   70.5770   -0.3012 O.3     1  UNL1       -0.4371
      4 O          19.0954   70.4568   -2.2865 O.3     1  UNL1       -0.3112
      5 C          18.1935   71.5436   -2.5014 C.3     1  UNL1        0.1811
      6 C          16.8847   70.5037   -5.6846 C.3     1  UNL1        0.2383
      7 C          17.2078   69.1799   -4.9455 C.3     1  UNL1        0.1895
      8 O          16.3142   68.1396   -5.3485 O.3     1  UNL1       -0.3779
      9 C          16.9708   69.5693   -3.4631 C.3     1  UNL1        0.1713
     10 C          17.0825   71.1052   -3.4572 C.3     1  UNL1        0.1764
     11 O          17.3996   71.5192   -4.7974 O.3     1  UNL1       -0.3308
     12 O          15.6710   69.1538   -3.0391 O.3     1  UNL1       -0.3794
     13 H          16.5678   67.3473   -4.8548 H       1  UNL1        0.2106
     14 H          15.6441   68.1909   -3.1214 H       1  UNL1        0.2105
     15 N          17.5677   70.5545   -6.9784 N.ar    1  UNL1       -0.2551
     16 C          16.8513   70.4810   -8.1140 C.ar    1  UNL1        0.3323
     17 N          17.4544   70.5290   -9.3164 N.ar    1  UNL1       -0.2743
     18 C          18.7938   70.6423   -9.4013 C.ar    1  UNL1        0.2626
     19 C          19.5618   70.7150   -8.2134 C.ar    1  UNL1        0.0795
     20 C          18.9312   70.6688   -7.0206 C.ar    1  UNL1        0.0869
     21 O          15.6421   70.3791   -8.0533 O.2     1  UNL1       -0.2464
     22 O          19.3410   70.6810  -10.4892 O.2     1  UNL1       -0.2670
     23 H          16.9213   70.4789  -10.1258 H       1  UNL1        0.1734
     24 O          21.6690   70.6497   -2.7856 O.3     1  UNL1       -0.2703
     25 P          22.9851   71.4613   -2.3394 P.3     1  UNL1        0.2208
     26 O          23.1033   71.4365   -0.8647 O.2     1  UNL1       -0.5170
     27 O          24.2866   70.7739   -2.9932 O.3     1  UNL1       -0.4371
     28 O          22.8739   72.9854   -2.8442 O.3     1  UNL1       -0.2858
     29 C          24.0289   73.2431   -3.6437 C.3     1  UNL1        0.2704
     30 C          24.4472   74.7049   -3.4779 C.3     1  UNL1        0.1967
     31 C          23.2841   75.6073   -3.9013 C.3     1  UNL1        0.1715
     32 C          22.8458   75.2106   -5.3156 C.3     1  UNL1        0.1694
     33 C          22.5469   73.7096   -5.3414 C.3     1  UNL1        0.1761
     34 O          24.7768   74.9563   -2.1107 O.3     1  UNL1       -0.3775
     35 O          23.7076   76.9723   -3.8924 O.3     1  UNL1       -0.3794
     36 O          23.8910   75.5106   -6.2415 O.3     1  UNL1       -0.3794
     37 O          23.7267   72.9781   -5.0115 O.3     1  UNL1       -0.3258
     38 H          25.5065   74.3630   -1.8860 H       1  UNL1        0.2106
     39 H          23.9845   77.1735   -2.9896 H       1  UNL1        0.2105
     40 H          24.0488   76.4621   -6.1870 H       1  UNL1        0.2105
     41 C          22.0751   73.3093   -6.7411 C.3     1  UNL1        0.1693
     42 O          22.9753   72.3442   -7.2883 O.3     1  UNL1       -0.3794
     43 H          22.6427   72.1185   -8.1679 H       1  UNL1        0.2105
@<TRIPOS>BOND
     1    15    16   ar
     2    15    20   ar
     3    15     6    1
     4    16    17   ar
     5    16    21    2
     6    17    18   ar
     7    17    23    1
     8    18    19   ar
     9    18    22    2
    10    19    20   ar
    11     6     7    1
    12     6    11    1
    13     7     8    1
    14     7     9    1
    15     8    13    1
    16     9    10    1
    17     9    12    1
    18    10    11    1
    19    10     5    1
    20    12    14    1
    21     5     4    1
    22     4     1    1
    23     1     2    2
    24     1     3    1
    25     1    24    1
    26    24    25    1
    27    25    26    2
    28    25    27    1
    29    25    28    1
    30    28    29    1
    31    29    30    1
    32    29    37    1
    33    30    31    1
    34    30    34    1
    35    31    32    1
    36    31    35    1
    37    32    33    1
    38    32    36    1
    39    33    41    1
    40    33    37    1
    41    41    42    1
    42    34    38    1
    43    35    39    1
    44    36    40    1
    45    42    43    1
@<TRIPOS>MOLECULE
GDU
 43 45 0 0 0
SMALL
GASTEIGER

@<TRIPOS>ATOM
      1 P          21.9314   72.4720   -6.4627 P.3     1  UNL1        0.2189
      2 O          20.7173   73.2588   -6.1521 O.2     1  UNL1       -0.5170
      3 O          22.7226   72.1455   -5.0988 O.3     1  UNL1       -0.4371
      4 O          21.5104   71.0961   -7.1815 O.3     1  UNL1       -0.3112
      5 C          20.5951   71.4370   -8.2238 C.3     1  UNL1        0.1811
      6 C          17.5191   70.0883   -6.9408 C.3     1  UNL1        0.2383
      7 C          17.0763   71.1039   -8.0250 C.3     1  UNL1        0.1895
      8 O          15.8515   70.6943   -8.6376 O.3     1  UNL1       -0.3779
      9 C          18.2508   71.0330   -9.0354 C.3     1  UNL1        0.1713
     10 C          19.4188   70.4591   -8.2120 C.3     1  UNL1        0.1764
     11 O          18.9480   70.2777   -6.8653 O.3     1  UNL1       -0.3308
     12 O          17.9228   70.1657  -10.1227 O.3     1  UNL1       -0.3794
     13 H          15.6323   71.3655   -9.2988 H       1  UNL1        0.2106
     14 H          17.1504   70.5469  -10.5618 H       1  UNL1        0.2105
     15 N          16.8894   70.3956   -5.6554 N.ar    1  UNL1       -0.2551
     16 C          16.4147   69.3972   -4.8899 C.ar    1  UNL1        0.3323
     17 N          15.8345   69.6523   -3.7024 N.ar    1  UNL1       -0.2743
     18 C          15.7110   70.9200   -3.2643 C.ar    1  UNL1        0.2626
     19 C          16.2013   71.9822   -4.0627 C.ar    1  UNL1        0.0795
     20 C          16.7826   71.6980   -5.2476 C.ar    1  UNL1        0.0869
     21 O          16.5194   68.2485   -5.2716 O.2     1  UNL1       -0.2464
     22 O          15.1817   71.1522   -2.1917 O.2     1  UNL1       -0.2670
     23 H          15.5013   68.9191   -3.1609 H       1  UNL1        0.1734
     24 O          22.8841   73.3219   -7.4438 O.3     1  UNL1       -0.2703
     25 P          22.8211   74.8510   -6.9461 P.3     1  UNL1        0.2208
     26 O          21.7201   75.5516   -7.6434 O.2     1  UNL1       -0.5170
     27 O          22.5588   74.8877   -5.3574 O.3     1  UNL1       -0.4371
     28 O          24.2168   75.5816   -7.2753 O.3     1  UNL1       -0.2858
     29 C          23.9480   76.5537   -8.2865 C.3     1  UNL1        0.2704
     30 C          24.5173   76.0705   -9.6213 C.3     1  UNL1        0.1967
     31 C          26.0256   75.8506   -9.4698 C.3     1  UNL1        0.1715
     32 C          26.6552   77.1350   -8.9188 C.3     1  UNL1        0.1694
     33 C          25.9244   77.5365   -7.6351 C.3     1  UNL1        0.1761
     34 O          23.8881   74.8431   -9.9938 O.3     1  UNL1       -0.3775
     35 O          26.5960   75.5414  -10.7432 O.3     1  UNL1       -0.3794
     36 O          26.5380   78.1782   -9.8873 O.3     1  UNL1       -0.3794
     37 O          24.5509   77.7936   -7.9235 O.3     1  UNL1       -0.3258
     38 H          22.9419   75.0266  -10.0705 H       1  UNL1        0.2106
     39 H          26.1636   74.7367  -11.0556 H       1  UNL1        0.2105
     40 H          27.0062   77.8800  -10.6779 H       1  UNL1        0.2105
     41 C          26.5677   78.7995   -7.0579 C.3     1  UNL1        0.1693
     42 O          25.6598   79.4218   -6.1472 O.3     1  UNL1       -0.3794
     43 H          26.1025   80.2111   -5.8062 H       1  UNL1        0.2105
@<TRIPOS>BOND
     1    15    16   ar
     2    15    20   ar
     3    15     6    1
     4    16    17   ar
     5    16    21    2
     6    17    18   ar
     7    17    23    1
     8    18    19   ar
     9    18    22    2
    10    19    20   ar
    11     6     7    1
    12     6    11    1
    13     7     8    1
    14     7     9    1
    15     8    13    1
    16     9    10    1
    17     9    12    1
    18    10    11    1
    19    10     5    1
    20    12    14    1
    21     5     4    1
    22     4     1    1
    23     1     2    2
    24     1     3    1
    25     1    24    1
    26    24    25    1
    27    25    26    2
    28    25    27    1
    29    25    28    1
    30    28    29    1
    31    29    30    1
    32    29    37    1
    33    30    31    1
    34    30    34    1
    35    31    32    1
    36    31    35    1
    37    32    33    1
    38    32    36    1
    39    33    41    1
    40    33    37    1
    41    41    42    1
    42    34    38    1
    43    35    39    1
    44    36    40    1
    45    42    43    1
@<TRIPOS>MOLECULE
GDU
 43 45 0 0 0
SMALL
GASTEIGER

@<TRIPOS>ATOM
      1 P          21.6028   72.0337   -6.2140 P.3     1  UNL1        0.2189
      2 O          20.8511   73.2485   -6.5997 O.2     1  UNL1       -0.5170
      3 O          21.0498   71.4853   -4.8046 O.3     1  UNL1       -0.4371
      4 O          21.4118   70.9032   -7.3420 O.3     1  UNL1       -0.3112
      5 C          20.3917   71.3695   -8.2266 C.3     1  UNL1        0.1811
      6 C          17.3075   70.0759   -6.9070 C.3     1  UNL1        0.2383
      7 C          16.8706   71.0781   -8.0060 C.3     1  UNL1        0.1895
      8 O          15.6384   70.6717   -8.6059 O.3     1  UNL1       -0.3779
      9 C          18.0393   70.9776   -9.0205 C.3     1  UNL1        0.1713
     10 C          19.2050   70.4048   -8.1930 C.3     1  UNL1        0.1764
     11 O          18.7388   70.2509   -6.8413 O.3     1  UNL1       -0.3308
     12 O          17.6967   70.0961  -10.0916 O.3     1  UNL1       -0.3794
     13 H          15.4233   71.3342   -9.2773 H       1  UNL1        0.2106
     14 H          16.9264   70.4783  -10.5334 H       1  UNL1        0.2105
     15 N          16.6874   70.4113   -5.6241 N.ar    1  UNL1       -0.2551
     16 C          16.4031   69.4341   -4.7451 C.ar    1  UNL1        0.3323
     17 N          15.8363   69.7159   -3.5572 N.ar    1  UNL1       -0.2743
     18 C          15.5341   70.9877   -3.2326 C.ar    1  UNL1        0.2626
     19 C          15.8226   72.0268   -4.1510 C.ar    1  UNL1        0.0795
     20 C          16.3952   71.7168   -5.3336 C.ar    1  UNL1        0.0869
     21 O          16.6703   68.2821   -5.0237 O.2     1  UNL1       -0.2464
     22 O          15.0166   71.2432   -2.1596 O.2     1  UNL1       -0.2670
     23 H          15.6419   68.9986   -2.9332 H       1  UNL1        0.1734
     24 O          23.1658   72.3935   -6.0723 O.3     1  UNL1       -0.2703
     25 P          23.3132   73.3288   -4.7710 P.3     1  UNL1        0.2208
     26 O          22.0067   73.4268   -4.0837 O.2     1  UNL1       -0.5170
     27 O          24.3991   72.6870   -3.7693 O.3     1  UNL1       -0.4371
     28 O          23.7980   74.7974   -5.2163 O.3     1  UNL1       -0.2858
     29 C          23.9116   75.5761   -4.0245 C.3     1  UNL1        0.2704
     30 C          23.4554   77.0084   -4.3068 C.3     1  UNL1        0.1967
     31 C          24.3239   77.5975   -5.4226 C.3     1  UNL1        0.1715
     32 C          25.7974   77.4481   -5.0273 C.3     1  UNL1        0.1694
     33 C          26.0765   75.9809   -4.6921 C.3     1  UNL1        0.1761
     34 O          22.0866   77.0029   -4.7160 O.3     1  UNL1       -0.3775
     35 O          24.0089   78.9806   -5.5967 O.3     1  UNL1       -0.3794
     36 O          26.0715   78.2641   -3.8876 O.3     1  UNL1       -0.3794
     37 O          25.2686   75.5774   -3.5874 O.3     1  UNL1       -0.3258
     38 H          21.5794   76.6184   -3.9882 H       1  UNL1        0.2106
     39 H          23.0736   79.0272   -5.8317 H       1  UNL1        0.2105
     40 H          25.8767   79.1754   -4.1424 H       1  UNL1        0.2105
     41 C          27.5538   75.8146   -4.3290 C.3     1  UNL1        0.1693
     42 O          28.0670   74.6363   -4.9528 O.3     1  UNL1       -0.3794
     43 H          28.9981   74.5686   -4.7001 H       1  UNL1        0.2105
@<TRIPOS>BOND
     1    15    16   ar
     2    15    20   ar
     3    15     6    1
     4    16    17   ar
     5    16    21    2
     6    17    18   ar
     7    17    23    1
     8    18    19   ar
     9    18    22    2
    10    19    20   ar
    11     6     7    1
    12     6    11    1
    13     7     8    1
    14     7     9    1
    15     8    13    1
    16     9    10    1
    17     9    12    1
    18    10    11    1
    19    10     5    1
    20    12    14    1
    21     5     4    1
    22     4     1    1
    23     1     2    2
    24     1     3    1
    25     1    24    1
    26    24    25    1
    27    25    26    2
    28    25    27    1
    29    25    28    1
    30    28    29    1
    31    29    30    1
    32    29    37    1
    33    30    31    1
    34    30    34    1
    35    31    32    1
    36    31    35    1
    37    32    33    1
    38    32    36    1
    39    33    41    1
    40    33    37    1
    41    41    42    1
    42    34    38    1
    43    35    39    1
    44    36    40    1
    45    42    43    1
@<TRIPOS>MOLECULE
GDU
 43 45 0 0 0
SMALL
GASTEIGER

@<TRIPOS>ATOM
      1 P          21.2694   71.2766   -2.7939 P.3     1  UNL1        0.2189
      2 O          22.5714   70.8978   -3.3862 O.2     1  UNL1       -0.5170
      3 O          20.9160   72.7940   -3.2010 O.3     1  UNL1       -0.4371
      4 O          20.1224   70.2925   -3.3441 O.3     1  UNL1       -0.3112
      5 C          18.9779   70.4846   -2.5112 C.3     1  UNL1        0.1811
      6 C          17.1905   70.4861   -5.6309 C.3     1  UNL1        0.2383
      7 C          17.0499   69.0356   -5.1026 C.3     1  UNL1        0.1895
      8 O          15.8147   68.4554   -5.5281 O.3     1  UNL1       -0.3779
      9 C          17.0615   69.2468   -3.5662 C.3     1  UNL1        0.1713
     10 C          17.7282   70.6228   -3.3827 C.3     1  UNL1        0.1764
     11 O          18.0939   71.1018   -4.6884 O.3     1  UNL1       -0.3308
     12 O          15.7278   69.2572   -3.0533 O.3     1  UNL1       -0.3794
     13 H          15.7896   67.5578   -5.1682 H       1  UNL1        0.2106
     14 H          15.3450   68.3916   -3.2506 H       1  UNL1        0.2105
     15 N          17.7655   70.4937   -6.9770 N.ar    1  UNL1       -0.2551
     16 C          16.9550   70.4420   -8.0488 C.ar    1  UNL1        0.3323
     17 N          17.4580   70.4512   -9.2973 N.ar    1  UNL1       -0.2743
     18 C          18.7896   70.5026   -9.4935 C.ar    1  UNL1        0.2626
     19 C          19.6558   70.5515   -8.3739 C.ar    1  UNL1        0.0795
     20 C          19.1247   70.5454   -7.1328 C.ar    1  UNL1        0.0869
     21 O          15.7517   70.3958   -7.8875 O.2     1  UNL1       -0.2464
     22 O          19.2460   70.5061  -10.6232 O.2     1  UNL1       -0.2670
     23 H          16.8581   70.4177  -10.0593 H       1  UNL1        0.1734
     24 O          21.3557   71.1588   -1.1905 O.3     1  UNL1       -0.2703
     25 P          22.6467   72.0019   -0.7295 P.3     1  UNL1        0.2208
     26 O          23.7770   71.0789   -0.4854 O.2     1  UNL1       -0.5170
     27 O          23.0476   73.0458   -1.8887 O.3     1  UNL1       -0.4371
     28 O          22.3085   72.8071    0.6224 O.3     1  UNL1       -0.2858
     29 C          21.1408   72.2052    1.1827 C.3     1  UNL1        0.2704
     30 C          20.0061   73.2302    1.2166 C.3     1  UNL1        0.1967
     31 C          20.4476   74.4354    2.0527 C.3     1  UNL1        0.1715
     32 C          20.9162   73.9353    3.4239 C.3     1  UNL1        0.1694
     33 C          21.9841   72.8574    3.2223 C.3     1  UNL1        0.1761
     34 O          19.7038   73.6538   -0.1139 O.3     1  UNL1       -0.3775
     35 O          19.3489   75.3345    2.2167 O.3     1  UNL1       -0.3794
     36 O          19.8066   73.3879    4.1375 O.3     1  UNL1       -0.3794
     37 O          21.4275   71.7565    2.5052 O.3     1  UNL1       -0.3258
     38 H          19.4383   72.8641   -0.6046 H       1  UNL1        0.2106
     39 H          19.0807   75.6129    1.3319 H       1  UNL1        0.2105
     40 H          19.1591   74.0981    4.2358 H       1  UNL1        0.2105
     41 C          22.4836   72.3754    4.5861 C.3     1  UNL1        0.1693
     42 O          22.0759   73.3002    5.5958 O.3     1  UNL1       -0.3794
     43 H          22.4091   72.9603    6.4377 H       1  UNL1        0.2105
@<TRIPOS>BOND
     1    15    16   ar
     2    15    20   ar
     3    15     6    1
     4    16    17   ar
     5    16    21    2
     6    17    18   ar
     7    17    23    1
     8    18    19   ar
     9    18    22    2
    10    19    20   ar
    11     6     7    1
    12     6    11    1
    13     7     8    1
    14     7     9    1
    15     8    13    1
    16     9    10    1
    17     9    12    1
    18    10    11    1
    19    10     5    1
    20    12    14    1
    21     5     4    1
    22     4     1    1
    23     1     2    2
    24     1     3    1
    25     1    24    1
    26    24    25    1
    27    25    26    2
    28    25    27    1
    29    25    28    1
    30    28    29    1
    31    29    30    1
    32    29    37    1
    33    30    31    1
    34    30    34    1
    35    31    32    1
    36    31    35    1
    37    32    33    1
    38    32    36    1
    39    33    41    1
    40    33    37    1
    41    41    42    1
    42    34    38    1
    43    35    39    1
    44    36    40    1
    45    42    43    1
@<TRIPOS>MOLECULE
GDU
 43 45 0 0 0
SMALL
GASTEIGER

@<TRIPOS>ATOM
      1 P          20.5356   71.5364   -1.0302 P.3     1  UNL1        0.2189
      2 O          21.7271   70.6869   -0.8106 O.2     1  UNL1       -0.5170
      3 O          20.8053   72.5288   -2.2694 O.3     1  UNL1       -0.4371
      4 O          19.2648   70.6056   -1.3549 O.3     1  UNL1       -0.3112
      5 C          19.4207   70.1464   -2.6986 C.3     1  UNL1        0.1811
      6 C          17.4724   70.4259   -5.7074 C.3     1  UNL1        0.2383
      7 C          17.1986   68.9874   -5.1988 C.3     1  UNL1        0.1895
      8 O          15.8838   68.5597   -5.5617 O.3     1  UNL1       -0.3779
      9 C          17.3204   69.1574   -3.6620 C.3     1  UNL1        0.1713
     10 C          18.1477   70.4452   -3.4925 C.3     1  UNL1        0.1764
     11 O          18.4912   70.9129   -4.8083 O.3     1  UNL1       -0.3308
     12 O          16.0275   69.3040   -3.0716 O.3     1  UNL1       -0.3794
     13 H          15.7777   67.6618   -5.2176 H       1  UNL1        0.2106
     14 H          15.5388   68.4919   -3.2621 H       1  UNL1        0.2105
     15 N          17.9680   70.4027   -7.0846 N.ar    1  UNL1       -0.2551
     16 C          17.0952   70.4027   -8.1075 C.ar    1  UNL1        0.3323
     17 N          17.5247   70.3853   -9.3831 N.ar    1  UNL1       -0.2743
     18 C          18.8434   70.3574   -9.6562 C.ar    1  UNL1        0.2626
     19 C          19.7743   70.3513   -8.5887 C.ar    1  UNL1        0.0795
     20 C          19.3165   70.3735   -7.3189 C.ar    1  UNL1        0.0869
     21 O          15.9026   70.4282   -7.8768 O.2     1  UNL1       -0.2464
     22 O          19.2331   70.3368  -10.8104 O.2     1  UNL1       -0.2670
     23 H          16.8808   70.3899  -10.1091 H       1  UNL1        0.1734
     24 O          20.2435   72.4025    0.2953 O.3     1  UNL1       -0.2703
     25 P          21.4201   72.0669    1.3407 P.3     1  UNL1        0.2208
     26 O          21.5324   70.6005    1.5026 O.2     1  UNL1       -0.5170
     27 O          22.8138   72.6534    0.7861 O.3     1  UNL1       -0.4371
     28 O          21.0839   72.7406    2.7631 O.3     1  UNL1       -0.2858
     29 C          22.0970   73.7166    3.0097 C.3     1  UNL1        0.2704
     30 C          22.5347   73.6375    4.4731 C.3     1  UNL1        0.1967
     31 C          21.3182   73.8818    5.3713 C.3     1  UNL1        0.1715
     32 C          20.6611   75.2034    4.9576 C.3     1  UNL1        0.1694
     33 C          20.3634   75.1628    3.4567 C.3     1  UNL1        0.1761
     34 O          23.0773   72.3433    4.7411 O.3     1  UNL1       -0.3775
     35 O          21.7364   73.9572    6.7359 O.3     1  UNL1       -0.3794
     36 O          21.5455   76.2874    5.2451 O.3     1  UNL1       -0.3794
     37 O          21.5814   75.0157    2.7282 O.3     1  UNL1       -0.3258
     38 H          23.8340   72.2302    4.1499 H       1  UNL1        0.2106
     39 H          22.1530   73.1124    6.9480 H       1  UNL1        0.2105
     40 H          21.7090   76.2703    6.1971 H       1  UNL1        0.2105
     41 C          19.6756   76.4647    3.0395 C.3     1  UNL1        0.1693
     42 O          18.6389   76.7748    3.9724 O.3     1  UNL1       -0.3794
     43 H          18.2322   77.6002    3.6746 H       1  UNL1        0.2105
@<TRIPOS>BOND
     1    15    16   ar
     2    15    20   ar
     3    15     6    1
     4    16    17   ar
     5    16    21    2
     6    17    18   ar
     7    17    23    1
     8    18    19   ar
     9    18    22    2
    10    19    20   ar
    11     6     7    1
    12     6    11    1
    13     7     8    1
    14     7     9    1
    15     8    13    1
    16     9    10    1
    17     9    12    1
    18    10    11    1
    19    10     5    1
    20    12    14    1
    21     5     4    1
    22     4     1    1
    23     1     2    2
    24     1     3    1
    25     1    24    1
    26    24    25    1
    27    25    26    2
    28    25    27    1
    29    25    28    1
    30    28    29    1
    31    29    30    1
    32    29    37    1
    33    30    31    1
    34    30    34    1
    35    31    32    1
    36    31    35    1
    37    32    33    1
    38    32    36    1
    39    33    41    1
    40    33    37    1
    41    41    42    1
    42    34    38    1
    43    35    39    1
    44    36    40    1
    45    42    43    1
@<TRIPOS>MOLECULE
GDU
 43 45 0 0 0
SMALL
GASTEIGER

@<TRIPOS>ATOM
      1 P          22.3586   71.4054   -0.7108 P.3     1  UNL1        0.2189
      2 O          22.8251   70.5092    0.3702 O.2     1  UNL1       -0.5170
      3 O          23.3988   71.3514   -1.9389 O.3     1  UNL1       -0.4371
      4 O          20.9077   70.9286   -1.2151 O.3     1  UNL1       -0.3112
      5 C          20.8425   71.2105   -2.6140 C.3     1  UNL1        0.1811
      6 C          18.2357   70.7071   -5.0385 C.3     1  UNL1        0.2383
      7 C          18.4012   69.3267   -4.3528 C.3     1  UNL1        0.1895
      8 O          17.1607   68.6170   -4.3293 O.3     1  UNL1       -0.3779
      9 C          18.8371   69.7263   -2.9191 C.3     1  UNL1        0.1713
     10 C          19.3864   71.1560   -3.0797 C.3     1  UNL1        0.1764
     11 O          19.3071   71.4936   -4.4754 O.3     1  UNL1       -0.3308
     12 O          17.7159   69.7105   -2.0334 O.3     1  UNL1       -0.3794
     13 H          17.3317   67.7710   -3.8922 H       1  UNL1        0.2106
     14 H          17.3815   68.8035   -2.0210 H       1  UNL1        0.2105
     15 N          18.3913   70.5869   -6.4890 N.ar    1  UNL1       -0.2551
     16 C          17.3099   70.3794   -7.2608 C.ar    1  UNL1        0.3323
     17 N          17.4252   70.2688   -8.5974 N.ar    1  UNL1       -0.2743
     18 C          18.6340   70.3549   -9.1851 C.ar    1  UNL1        0.2626
     19 C          19.7827   70.5676   -8.3841 C.ar    1  UNL1        0.0795
     20 C          19.6383   70.6792   -7.0465 C.ar    1  UNL1        0.0869
     21 O          16.2128   70.3000   -6.7451 O.2     1  UNL1       -0.2464
     22 O          18.7399   70.2502  -10.3944 O.2     1  UNL1       -0.2670
     23 H          16.6335   70.1235   -9.1395 H       1  UNL1        0.1734
     24 O          22.2658   72.9133   -0.1540 O.3     1  UNL1       -0.2703
     25 P          21.5100   72.8411    1.2650 P.3     1  UNL1        0.2208
     26 O          20.5046   73.9237    1.3438 O.2     1  UNL1       -0.5170
     27 O          20.7749   71.4152    1.4092 O.3     1  UNL1       -0.4371
     28 O          22.5806   73.0141    2.4540 O.3     1  UNL1       -0.2858
     29 C          22.7569   74.4174    2.6527 C.3     1  UNL1        0.2704
     30 C          24.2379   74.7703    2.5060 C.3     1  UNL1        0.1967
     31 C          25.0448   73.9728    3.5352 C.3     1  UNL1        0.1715
     32 C          24.4493   74.2228    4.9253 C.3     1  UNL1        0.1694
     33 C          22.9515   73.9092    4.8889 C.3     1  UNL1        0.1761
     34 O          24.6804   74.4399    1.1883 O.3     1  UNL1       -0.3775
     35 O          26.4087   74.3990    3.5107 O.3     1  UNL1       -0.3794
     36 O          24.6475   75.5891    5.2913 O.3     1  UNL1       -0.3794
     37 O          22.3016   74.7719    3.9564 O.3     1  UNL1       -0.3258
     38 H          24.1418   74.9581    0.5750 H       1  UNL1        0.2106
     39 H          26.7373   74.2347    2.6178 H       1  UNL1        0.2105
     40 H          25.6014   75.7421    5.2956 H       1  UNL1        0.2105
     41 C          22.3535   74.1229    6.2812 C.3     1  UNL1        0.1693
     42 O          23.2811   73.6747    7.2710 O.3     1  UNL1       -0.3794
     43 H          22.8673   73.8271    8.1318 H       1  UNL1        0.2105
@<TRIPOS>BOND
     1    15    16   ar
     2    15    20   ar
     3    15     6    1
     4    16    17   ar
     5    16    21    2
     6    17    18   ar
     7    17    23    1
     8    18    19   ar
     9    18    22    2
    10    19    20   ar
    11     6     7    1
    12     6    11    1
    13     7     8    1
    14     7     9    1
    15     8    13    1
    16     9    10    1
    17     9    12    1
    18    10    11    1
    19    10     5    1
    20    12    14    1
    21     5     4    1
    22     4     1    1
    23     1     2    2
    24     1     3    1
    25     1    24    1
    26    24    25    1
    27    25    26    2
    28    25    27    1
    29    25    28    1
    30    28    29    1
    31    29    30    1
    32    29    37    1
    33    30    31    1
    34    30    34    1
    35    31    32    1
    36    31    35    1
    37    32    33    1
    38    32    36    1
    39    33    41    1
    40    33    37    1
    41    41    42    1
    42    34    38    1
    43    35    39    1
    44    36    40    1
    45    42    43    1
@<TRIPOS>MOLECULE
GDU
 43 45 0 0 0
SMALL
GASTEIGER

@<TRIPOS>ATOM
      1 P          21.0860   71.4019    0.0311 P.3     1  UNL1        0.2189
      2 O          20.4042   72.3138    0.9762 O.2     1  UNL1       -0.5170
      3 O          19.9868   70.6289   -0.8560 O.3     1  UNL1       -0.4371
      4 O          22.0523   72.2524   -0.9331 O.3     1  UNL1       -0.3112
      5 C          21.3056   72.5423   -2.1159 C.3     1  UNL1        0.1811
      6 C          21.1481   71.0584   -5.3871 C.3     1  UNL1        0.2383
      7 C          21.8430   72.4255   -5.6130 C.3     1  UNL1        0.1895
      8 O          22.7614   72.3562   -6.7062 O.3     1  UNL1       -0.3779
      9 C          22.5940   72.6337   -4.2721 C.3     1  UNL1        0.1713
     10 C          21.8528   71.7166   -3.2817 C.3     1  UNL1        0.1764
     11 O          20.7671   71.1000   -3.9955 O.3     1  UNL1       -0.3308
     12 O          23.9622   72.2415   -4.3996 O.3     1  UNL1       -0.3794
     13 H          23.1576   73.2344   -6.7937 H       1  UNL1        0.2106
     14 H          24.3553   72.8118   -5.0742 H       1  UNL1        0.2105
     15 N          19.9666   70.9305   -6.2417 N.ar    1  UNL1       -0.2551
     16 C          20.0679   70.3122   -7.4316 C.ar    1  UNL1        0.3323
     17 N          18.9961   70.1782   -8.2348 N.ar    1  UNL1       -0.2743
     18 C          17.8004   70.6730   -7.8612 C.ar    1  UNL1        0.2626
     19 C          17.6799   71.3318   -6.6131 C.ar    1  UNL1        0.0795
     20 C          18.7698   71.4486   -5.8252 C.ar    1  UNL1        0.0869
     21 O          21.1399   69.8603   -7.7819 O.2     1  UNL1       -0.2464
     22 O          16.8307   70.5563   -8.5897 O.2     1  UNL1       -0.2670
     23 H          19.0865   69.7253   -9.0883 H       1  UNL1        0.1734
     24 O          21.9582   70.3294    0.8565 O.3     1  UNL1       -0.2703
     25 P          23.4632   70.8966    0.9135 P.3     1  UNL1        0.2208
     26 O          24.3048   69.9819    1.7161 O.2     1  UNL1       -0.5170
     27 O          24.0554   70.9974   -0.5809 O.3     1  UNL1       -0.4371
     28 O          23.4620   72.3575    1.5886 O.3     1  UNL1       -0.2858
     29 C          23.7441   72.1736    2.9765 C.3     1  UNL1        0.2704
     30 C          22.6041   72.7609    3.8100 C.3     1  UNL1        0.1967
     31 C          22.4609   74.2498    3.4799 C.3     1  UNL1        0.1715
     32 C          23.8231   74.9269    3.6691 C.3     1  UNL1        0.1694
     33 C          24.8710   74.1758    2.8440 C.3     1  UNL1        0.1761
     34 O          21.3859   72.0813    3.5010 O.3     1  UNL1       -0.3775
     35 O          21.5004   74.8454    4.3548 O.3     1  UNL1       -0.3794
     36 O          24.1840   74.8964    5.0506 O.3     1  UNL1       -0.3794
     37 O          24.9683   72.8278    3.3017 O.3     1  UNL1       -0.3258
     38 H          21.5240   71.1490    3.7170 H       1  UNL1        0.2106
     39 H          20.6656   74.3821    4.2108 H       1  UNL1        0.2105
     40 H          23.4952   75.3746    5.5305 H       1  UNL1        0.2105
     41 C          26.2289   74.8645    2.9987 C.3     1  UNL1        0.1693
     42 O          26.9141   74.3167    4.1263 O.3     1  UNL1       -0.3794
     43 H          27.7630   74.7759    4.1881 H       1  UNL1        0.2105
@<TRIPOS>BOND
     1    15    16   ar
     2    15    20   ar
     3    15     6    1
     4    16    17   ar
     5    16    21    2
     6    17    18   ar
     7    17    23    1
     8    18    19   ar
     9    18    22    2
    10    19    20   ar
    11     6     7    1
    12     6    11    1
    13     7     8    1
    14     7     9    1
    15     8    13    1
    16     9    10    1
    17     9    12    1
    18    10    11    1
    19    10     5    1
    20    12    14    1
    21     5     4    1
    22     4     1    1
    23     1     2    2
    24     1     3    1
    25     1    24    1
    26    24    25    1
    27    25    26    2
    28    25    27    1
    29    25    28    1
    30    28    29    1
    31    29    30    1
    32    29    37    1
    33    30    31    1
    34    30    34    1
    35    31    32    1
    36    31    35    1
    37    32    33    1
    38    32    36    1
    39    33    41    1
    40    33    37    1
    41    41    42    1
    42    34    38    1
    43    35    39    1
    44    36    40    1
    45    42    43    1
@<TRIPOS>MOLECULE
GDU
 43 45 0 0 0
SMALL
GASTEIGER

@<TRIPOS>ATOM
      1 P          22.6810   71.6637   -1.2302 P.3     1  UNL1        0.2189
      2 O          21.7333   70.6509   -1.7455 O.2     1  UNL1       -0.5170
      3 O          23.6649   70.9798   -0.1545 O.3     1  UNL1       -0.4371
      4 O          23.5472   72.2576   -2.4483 O.3     1  UNL1       -0.3112
      5 C          22.7005   73.1664   -3.1537 C.3     1  UNL1        0.1811
      6 C          21.2342   72.0427   -6.2383 C.3     1  UNL1        0.2383
      7 C          21.0587   73.5827   -6.2623 C.3     1  UNL1        0.1895
      8 O          21.0882   74.0784   -7.6027 O.3     1  UNL1       -0.3779
      9 C          22.3004   74.0637   -5.4673 C.3     1  UNL1        0.1713
     10 C          22.7197   72.8303   -4.6460 C.3     1  UNL1        0.1764
     11 O          21.7714   71.7853   -4.9235 O.3     1  UNL1       -0.3308
     12 O          23.3441   74.4566   -6.3606 O.3     1  UNL1       -0.3794
     13 H          20.9740   75.0375   -7.5479 H       1  UNL1        0.2106
     14 H          23.0009   75.1919   -6.8862 H       1  UNL1        0.2105
     15 N          19.9445   71.3716   -6.4090 N.ar    1  UNL1       -0.2551
     16 C          19.5327   71.0217   -7.6403 C.ar    1  UNL1        0.3323
     17 N          18.3528   70.4005   -7.8243 N.ar    1  UNL1       -0.2743
     18 C          17.5570   70.1270   -6.7725 C.ar    1  UNL1        0.2626
     19 C          17.9752   70.4950   -5.4703 C.ar    1  UNL1        0.0795
     20 C          19.1651   71.1131   -5.3136 C.ar    1  UNL1        0.0869
     21 O          20.2399   71.2613   -8.5986 O.2     1  UNL1       -0.2464
     22 O          16.4866   69.5691   -6.9386 O.2     1  UNL1       -0.2670
     23 H          18.0733   70.1513   -8.7196 H       1  UNL1        0.1734
     24 O          21.8600   72.8547   -0.5231 O.3     1  UNL1       -0.2703
     25 P          21.2497   72.2555    0.8402 P.3     1  UNL1        0.2208
     26 O          19.9669   72.9274    1.1433 O.2     1  UNL1       -0.5170
     27 O          20.9986   70.6742    0.6660 O.3     1  UNL1       -0.4371
     28 O          22.2849   72.5035    2.0473 O.3     1  UNL1       -0.2858
     29 C          22.4814   73.9149    2.1421 C.3     1  UNL1        0.2704
     30 C          23.9770   74.2267    2.0694 C.3     1  UNL1        0.1967
     31 C          24.6934   73.5028    3.2136 C.3     1  UNL1        0.1715
     32 C          24.0122   73.8789    4.5342 C.3     1  UNL1        0.1694
     33 C          22.5130   73.5913    4.4205 C.3     1  UNL1        0.1761
     34 O          24.4988   73.7794    0.8169 O.3     1  UNL1       -0.3775
     35 O          26.0658   73.9001    3.2484 O.3     1  UNL1       -0.3794
     36 O          24.2185   75.2670    4.7999 O.3     1  UNL1       -0.3794
     37 O          21.9484   74.3852    3.3779 O.3     1  UNL1       -0.3258
     38 H          24.0153   74.2547    0.1275 H       1  UNL1        0.2106
     39 H          26.4496   73.6558    2.3967 H       1  UNL1        0.2105
     40 H          25.1733   75.4021    4.8574 H       1  UNL1        0.2105
     41 C          21.8282   73.9314    5.7461 C.3     1  UNL1        0.1693
     42 O          22.7150   73.6403    6.8278 O.3     1  UNL1       -0.3794
     43 H          22.2469   73.8686    7.6427 H       1  UNL1        0.2105
@<TRIPOS>BOND
     1    15    16   ar
     2    15    20   ar
     3    15     6    1
     4    16    17   ar
     5    16    21    2
     6    17    18   ar
     7    17    23    1
     8    18    19   ar
     9    18    22    2
    10    19    20   ar
    11     6     7    1
    12     6    11    1
    13     7     8    1
    14     7     9    1
    15     8    13    1
    16     9    10    1
    17     9    12    1
    18    10    11    1
    19    10     5    1
    20    12    14    1
    21     5     4    1
    22     4     1    1
    23     1     2    2
    24     1     3    1
    25     1    24    1
    26    24    25    1
    27    25    26    2
    28    25    27    1
    29    25    28    1
    30    28    29    1
    31    29    30    1
    32    29    37    1
    33    30    31    1
    34    30    34    1
    35    31    32    1
    36    31    35    1
    37    32    33    1
    38    32    36    1
    39    33    41    1
    40    33    37    1
    41    41    42    1
    42    34    38    1
    43    35    39    1
    44    36    40    1
    45    42    43    1
@<TRIPOS>MOLECULE
GDU
 43 45 0 0 0
SMALL
GASTEIGER

@<TRIPOS>ATOM
      1 P          23.5383   72.2084   -3.3866 P.3     1  UNL1        0.2189
      2 O          24.2998   72.9067   -4.4459 O.2     1  UNL1       -0.5170
      3 O          24.2838   70.8320   -3.0086 O.3     1  UNL1       -0.4371
      4 O          23.4487   73.1458   -2.0828 O.3     1  UNL1       -0.3112
      5 C          22.3868   72.6329   -1.2766 C.3     1  UNL1        0.1811
      6 C          24.3497   71.7495    1.6034 C.3     1  UNL1        0.2383
      7 C          22.9314   72.0206    2.1673 C.3     1  UNL1        0.1895
      8 O          22.6781   71.2135    3.3196 O.3     1  UNL1       -0.3779
      9 C          22.0243   71.5948    0.9836 C.3     1  UNL1        0.1713
     10 C          22.9541   71.6590   -0.2423 C.3     1  UNL1        0.1764
     11 O          24.2367   72.1230    0.2137 O.3     1  UNL1       -0.3308
     12 O          21.5363   70.2664    1.1809 O.3     1  UNL1       -0.3794
     13 H          21.7843   71.4294    3.6202 H       1  UNL1        0.2106
     14 H          21.0117   70.2784    1.9929 H       1  UNL1        0.2105
     15 N          25.3446   72.5818    2.2818 N.ar    1  UNL1       -0.2551
     16 C          26.4980   72.0331    2.7024 C.ar    1  UNL1        0.3323
     17 N          27.4309   72.7769    3.3256 N.ar    1  UNL1       -0.2743
     18 C          27.2180   74.0882    3.5478 C.ar    1  UNL1        0.2626
     19 C          26.0053   74.6786    3.1154 C.ar    1  UNL1        0.0795
     20 C          25.0886   73.9106    2.4891 C.ar    1  UNL1        0.0869
     21 O          26.7044   70.8515    2.5087 O.2     1  UNL1       -0.2464
     22 O          28.0598   74.7612    4.1161 O.2     1  UNL1       -0.2670
     23 H          28.2594   72.3652    3.6186 H       1  UNL1        0.1734
     24 O          22.0538   71.8843   -3.9192 O.3     1  UNL1       -0.2703
     25 P          21.8342   72.7606   -5.2511 P.3     1  UNL1        0.2208
     26 O          21.9745   74.1969   -4.9250 O.2     1  UNL1       -0.5170
     27 O          22.9370   72.3503   -6.3510 O.3     1  UNL1       -0.4371
     28 O          20.3622   72.4842   -5.8400 O.3     1  UNL1       -0.2858
     29 C          20.3496   71.1355   -6.3097 C.3     1  UNL1        0.2704
     30 C          19.8357   71.1028   -7.7499 C.3     1  UNL1        0.1967
     31 C          18.4269   71.7028   -7.7904 C.3     1  UNL1        0.1715
     32 C          17.5518   70.9680   -6.7688 C.3     1  UNL1        0.1694
     33 C          18.2385   71.0128   -5.4015 C.3     1  UNL1        0.1761
     34 O          20.7069   71.8661   -8.5864 O.3     1  UNL1       -0.3775
     35 O          17.8757   71.5457   -9.0996 O.3     1  UNL1       -0.3794
     36 O          17.3779   69.6104   -7.1773 O.3     1  UNL1       -0.3794
     37 O          19.5006   70.3513   -5.4749 O.3     1  UNL1       -0.3258
     38 H          21.5813   71.4580   -8.5246 H       1  UNL1        0.2106
     39 H          18.4627   72.0118   -9.7082 H       1  UNL1        0.2105
     40 H          16.9488   69.6313   -8.0426 H       1  UNL1        0.2105
     41 C          17.3563   70.3112   -4.3664 C.3     1  UNL1        0.1693
     42 O          16.0279   70.1896   -4.8780 O.3     1  UNL1       -0.3794
     43 H          15.5057   69.7429   -4.1975 H       1  UNL1        0.2105
@<TRIPOS>BOND
     1    15    16   ar
     2    15    20   ar
     3    15     6    1
     4    16    17   ar
     5    16    21    2
     6    17    18   ar
     7    17    23    1
     8    18    19   ar
     9    18    22    2
    10    19    20   ar
    11     6     7    1
    12     6    11    1
    13     7     8    1
    14     7     9    1
    15     8    13    1
    16     9    10    1
    17     9    12    1
    18    10    11    1
    19    10     5    1
    20    12    14    1
    21     5     4    1
    22     4     1    1
    23     1     2    2
    24     1     3    1
    25     1    24    1
    26    24    25    1
    27    25    26    2
    28    25    27    1
    29    25    28    1
    30    28    29    1
    31    29    30    1
    32    29    37    1
    33    30    31    1
    34    30    34    1
    35    31    32    1
    36    31    35    1
    37    32    33    1
    38    32    36    1
    39    33    41    1
    40    33    37    1
    41    41    42    1
    42    34    38    1
    43    35    39    1
    44    36    40    1
    45    42    43    1
@<TRIPOS>MOLECULE
GDU
 43 45 0 0 0
SMALL
GASTEIGER

@<TRIPOS>ATOM
      1 P          19.8049   71.0703   -1.9648 P.3     1  UNL1        0.2189
      2 O          20.3716   70.6157   -0.6757 O.2     1  UNL1       -0.5170
      3 O          20.4444   70.2089   -3.1656 O.3     1  UNL1       -0.4371
      4 O          18.2092   70.8691   -1.9506 O.3     1  UNL1       -0.3112
      5 C          17.6554   71.8961   -2.7746 C.3     1  UNL1        0.1811
      6 C          16.6997   70.4895   -5.9425 C.3     1  UNL1        0.2383
      7 C          17.0818   69.2648   -5.0723 C.3     1  UNL1        0.1895
      8 O          16.3200   68.1150   -5.4476 O.3     1  UNL1       -0.3779
      9 C          16.6950   69.7442   -3.6490 C.3     1  UNL1        0.1713
     10 C          16.6669   71.2795   -3.7660 C.3     1  UNL1        0.1764
     11 O          17.0496   71.6161   -5.1107 O.3     1  UNL1       -0.3308
     12 O          15.4087   69.2399   -3.2844 O.3     1  UNL1       -0.3794
     13 H          16.6045   67.3918   -4.8715 H       1  UNL1        0.2106
     14 H          15.4752   68.2754   -3.2860 H       1  UNL1        0.2105
     15 N          17.4748   70.5046   -7.1842 N.ar    1  UNL1       -0.2551
     16 C          16.8377   70.5535   -8.3674 C.ar    1  UNL1        0.3323
     17 N          17.5267   70.5720   -9.5236 N.ar    1  UNL1       -0.2743
     18 C          18.8730   70.5317   -9.5135 C.ar    1  UNL1        0.2626
     19 C          19.5574   70.4743   -8.2747 C.ar    1  UNL1        0.0795
     20 C          18.8420   70.4611   -7.1300 C.ar    1  UNL1        0.0869
     21 O          15.6236   70.5907   -8.3924 O.2     1  UNL1       -0.2464
     22 O          19.4975   70.5436  -10.5596 O.2     1  UNL1       -0.2670
     23 H          17.0507   70.6117  -10.3683 H       1  UNL1        0.1734
     24 O          20.1488   72.6282   -2.1814 O.3     1  UNL1       -0.2703
     25 P          20.3785   73.2629   -0.7205 P.3     1  UNL1        0.2208
     26 O          21.0223   74.5883   -0.8544 O.2     1  UNL1       -0.5170
     27 O          18.9586   73.4291    0.0215 O.3     1  UNL1       -0.4371
     28 O          21.3245   72.2908    0.1455 O.3     1  UNL1       -0.2858
     29 C          22.5453   72.9957    0.3744 C.3     1  UNL1        0.2704
     30 C          23.7160   72.0121    0.3365 C.3     1  UNL1        0.1967
     31 C          23.5013   70.9399    1.4092 C.3     1  UNL1        0.1715
     32 C          23.2757   71.6337    2.7573 C.3     1  UNL1        0.1694
     33 C          22.1362   72.6453    2.6119 C.3     1  UNL1        0.1761
     34 O          23.7825   71.3965   -0.9511 O.3     1  UNL1       -0.3775
     35 O          24.6549   70.0998    1.4860 O.3     1  UNL1       -0.3794
     36 O          24.4711   72.3071    3.1541 O.3     1  UNL1       -0.3794
     37 O          22.4914   73.6351    1.6475 O.3     1  UNL1       -0.3258
     38 H          23.9106   72.1074   -1.5939 H       1  UNL1        0.2106
     39 H          24.7648   69.6951    0.6163 H       1  UNL1        0.2105
     40 H          25.1603   71.6341    3.2273 H       1  UNL1        0.2105
     41 C          21.8797   73.3195    3.9616 C.3     1  UNL1        0.1693
     42 O          22.3291   72.4638    5.0136 O.3     1  UNL1       -0.3794
     43 H          22.1505   72.9247    5.8448 H       1  UNL1        0.2105
@<TRIPOS>BOND
     1    15    16   ar
     2    15    20   ar
     3    15     6    1
     4    16    17   ar
     5    16    21    2
     6    17    18   ar
     7    17    23    1
     8    18    19   ar
     9    18    22    2
    10    19    20   ar
    11     6     7    1
    12     6    11    1
    13     7     8    1
    14     7     9    1
    15     8    13    1
    16     9    10    1
    17     9    12    1
    18    10    11    1
    19    10     5    1
    20    12    14    1
    21     5     4    1
    22     4     1    1
    23     1     2    2
    24     1     3    1
    25     1    24    1
    26    24    25    1
    27    25    26    2
    28    25    27    1
    29    25    28    1
    30    28    29    1
    31    29    30    1
    32    29    37    1
    33    30    31    1
    34    30    34    1
    35    31    32    1
    36    31    35    1
    37    32    33    1
    38    32    36    1
    39    33    41    1
    40    33    37    1
    41    41    42    1
    42    34    38    1
    43    35    39    1
    44    36    40    1
    45    42    43    1
@<TRIPOS>MOLECULE
GDU
 43 45 0 0 0
SMALL
GASTEIGER

@<TRIPOS>ATOM
      1 P          22.7532   72.1363   -3.2166 P.3     1  UNL1        0.2189
      2 O          22.1432   73.4833   -3.1636 O.2     1  UNL1       -0.5170
      3 O          24.1319   72.2038   -4.0459 O.3     1  UNL1       -0.4371
      4 O          23.0508   71.6223   -1.7219 O.3     1  UNL1       -0.3112
      5 C          21.8346   71.0585   -1.2284 C.3     1  UNL1        0.1811
      6 C          23.1755   71.8846    2.0038 C.3     1  UNL1        0.2383
      7 C          22.5922   73.2187    1.4719 C.3     1  UNL1        0.1895
      8 O          22.1294   74.0378    2.5481 O.3     1  UNL1       -0.3779
      9 C          21.4069   72.7301    0.5993 C.3     1  UNL1        0.1713
     10 C          21.7531   71.2627    0.2855 C.3     1  UNL1        0.1764
     11 O          23.0300   70.9837    0.8854 O.3     1  UNL1       -0.3308
     12 O          20.1809   72.8169    1.3282 O.3     1  UNL1       -0.3794
     13 H          21.7808   74.8484    2.1515 H       1  UNL1        0.2106
     14 H          20.0499   73.7498    1.5458 H       1  UNL1        0.2105
     15 N          24.5868   72.0415    2.3594 N.ar    1  UNL1       -0.2551
     16 C          25.3839   70.9602    2.4183 C.ar    1  UNL1        0.3323
     17 N          26.6859   71.0775    2.7393 N.ar    1  UNL1       -0.2743
     18 C          27.2113   72.2860    3.0179 C.ar    1  UNL1        0.2626
     19 C          26.3823   73.4332    2.9655 C.ar    1  UNL1        0.0795
     20 C          25.0810   73.2877    2.6366 C.ar    1  UNL1        0.0869
     21 O          24.9243   69.8635    2.1691 O.2     1  UNL1       -0.2464
     22 O          28.3886   72.3926    3.3133 O.2     1  UNL1       -0.2670
     23 H          27.2476   70.2868    2.7729 H       1  UNL1        0.1734
     24 O          21.7404   71.1178   -3.9440 O.3     1  UNL1       -0.2703
     25 P          20.7812   72.0050   -4.8836 P.3     1  UNL1        0.2208
     26 O          20.0007   72.9424   -4.0462 O.2     1  UNL1       -0.5170
     27 O          21.6777   72.8396   -5.9294 O.3     1  UNL1       -0.4371
     28 O          19.7766   71.0404   -5.6900 O.3     1  UNL1       -0.2858
     29 C          18.7912   71.8793   -6.2940 C.3     1  UNL1        0.2704
     30 C          17.3971   71.4115   -5.8732 C.3     1  UNL1        0.1967
     31 C          17.2076   69.9550   -6.3081 C.3     1  UNL1        0.1715
     32 C          17.5062   69.8485   -7.8078 C.3     1  UNL1        0.1694
     33 C          18.8940   70.4335   -8.0817 C.3     1  UNL1        0.1761
     34 O          17.2676   71.5095   -4.4538 O.3     1  UNL1       -0.3775
     35 O          15.8608   69.5496   -6.0543 O.3     1  UNL1       -0.3794
     36 O          16.5219   70.5761   -8.5438 O.3     1  UNL1       -0.3794
     37 O          18.9168   71.8116   -7.7126 O.3     1  UNL1       -0.3258
     38 H          17.4011   72.4394   -4.2250 H       1  UNL1        0.2106
     39 H          15.7144   69.6439   -5.1046 H       1  UNL1        0.2105
     40 H          15.6665   70.1778   -8.3367 H       1  UNL1        0.2105
     41 C          19.2164   70.3009   -9.5718 C.3     1  UNL1        0.1693
     42 O          18.5014   71.2981  -10.3036 O.3     1  UNL1       -0.3794
     43 H          18.7323   71.1808  -11.2354 H       1  UNL1        0.2105
@<TRIPOS>BOND
     1    15    16   ar
     2    15    20   ar
     3    15     6    1
     4    16    17   ar
     5    16    21    2
     6    17    18   ar
     7    17    23    1
     8    18    19   ar
     9    18    22    2
    10    19    20   ar
    11     6     7    1
    12     6    11    1
    13     7     8    1
    14     7     9    1
    15     8    13    1
    16     9    10    1
    17     9    12    1
    18    10    11    1
    19    10     5    1
    20    12    14    1
    21     5     4    1
    22     4     1    1
    23     1     2    2
    24     1     3    1
    25     1    24    1
    26    24    25    1
    27    25    26    2
    28    25    27    1
    29    25    28    1
    30    28    29    1
    31    29    30    1
    32    29    37    1
    33    30    31    1
    34    30    34    1
    35    31    32    1
    36    31    35    1
    37    32    33    1
    38    32    36    1
    39    33    41    1
    40    33    37    1
    41    41    42    1
    42    34    38    1
    43    35    39    1
    44    36    40    1
    45    42    43    1
@<TRIPOS>MOLECULE
GDU
 43 45 0 0 0
SMALL
GASTEIGER

@<TRIPOS>ATOM
      1 P          20.7434   71.3557   -0.9555 P.3     1  UNL1        0.2189
      2 O          21.0409   70.4839    0.2025 O.2     1  UNL1       -0.5170
      3 O          21.7327   70.9883   -2.1718 O.3     1  UNL1       -0.4371
      4 O          19.2190   71.1333   -1.4176 O.3     1  UNL1       -0.3112
      5 C          19.2559   70.3045   -2.5805 C.3     1  UNL1        0.1811
      6 C          17.3461   70.4488   -5.6234 C.3     1  UNL1        0.2383
      7 C          17.1709   68.9922   -5.1227 C.3     1  UNL1        0.1895
      8 O          15.8982   68.4694   -5.5101 O.3     1  UNL1       -0.3779
      9 C          17.2524   69.1656   -3.5837 C.3     1  UNL1        0.1713
     10 C          17.9786   70.5107   -3.3966 C.3     1  UNL1        0.1764
     11 O          18.3097   71.0071   -4.7051 O.3     1  UNL1       -0.3308
     12 O          15.9418   69.2138   -3.0163 O.3     1  UNL1       -0.3794
     13 H          15.8530   67.5649   -5.1699 H       1  UNL1        0.2106
     14 H          15.5183   68.3683   -3.2173 H       1  UNL1        0.2105
     15 N          17.8665   70.4672   -6.9915 N.ar    1  UNL1       -0.2551
     16 C          17.0142   70.4089   -8.0300 C.ar    1  UNL1        0.3323
     17 N          17.4665   70.4278   -9.2976 N.ar    1  UNL1       -0.2743
     18 C          18.7884   70.4958   -9.5470 C.ar    1  UNL1        0.2626
     19 C          19.6983   70.5520   -8.4629 C.ar    1  UNL1        0.0795
     20 C          19.2175   70.5358   -7.2015 C.ar    1  UNL1        0.0869
     21 O          15.8190   70.3476   -7.8207 O.2     1  UNL1       -0.2464
     22 O          19.1991   70.5082  -10.6940 O.2     1  UNL1       -0.2670
     23 H          16.8369   70.3893  -10.0351 H       1  UNL1        0.1734
     24 O          20.9594   72.8952   -0.5363 O.3     1  UNL1       -0.2703
     25 P          19.7968   73.7427   -1.2576 P.3     1  UNL1        0.2208
     26 O          18.4763   73.2590   -0.7976 O.2     1  UNL1       -0.5170
     27 O          19.9574   75.3008   -0.8826 O.3     1  UNL1       -0.4371
     28 O          19.9099   73.5614   -2.8527 O.3     1  UNL1       -0.2858
     29 C          20.3848   74.8015   -3.3786 C.3     1  UNL1        0.2704
     30 C          19.9092   74.9571   -4.8239 C.3     1  UNL1        0.1967
     31 C          20.4368   73.7811   -5.6517 C.3     1  UNL1        0.1715
     32 C          21.9565   73.6970   -5.4705 C.3     1  UNL1        0.1694
     33 C          22.2768   73.6349   -3.9750 C.3     1  UNL1        0.1761
     34 O          18.4810   74.9668   -4.8595 O.3     1  UNL1       -0.3775
     35 O          20.1260   73.9874   -7.0313 O.3     1  UNL1       -0.3794
     36 O          22.5711   74.8496   -6.0483 O.3     1  UNL1       -0.3794
     37 O          21.8096   74.8205   -3.3330 O.3     1  UNL1       -0.3258
     38 H          18.1936   75.7167   -4.3211 H       1  UNL1        0.2106
     39 H          19.1644   74.0459   -7.0958 H       1  UNL1        0.2105
     40 H          22.3383   74.8506   -6.9858 H       1  UNL1        0.2105
     41 C          23.7906   73.5162   -3.7839 C.3     1  UNL1        0.1693
     42 O          24.2055   72.1839   -4.0905 O.3     1  UNL1       -0.3794
     43 H          25.1630   72.1516   -3.9585 H       1  UNL1        0.2105
@<TRIPOS>BOND
     1    15    16   ar
     2    15    20   ar
     3    15     6    1
     4    16    17   ar
     5    16    21    2
     6    17    18   ar
     7    17    23    1
     8    18    19   ar
     9    18    22    2
    10    19    20   ar
    11     6     7    1
    12     6    11    1
    13     7     8    1
    14     7     9    1
    15     8    13    1
    16     9    10    1
    17     9    12    1
    18    10    11    1
    19    10     5    1
    20    12    14    1
    21     5     4    1
    22     4     1    1
    23     1     2    2
    24     1     3    1
    25     1    24    1
    26    24    25    1
    27    25    26    2
    28    25    27    1
    29    25    28    1
    30    28    29    1
    31    29    30    1
    32    29    37    1
    33    30    31    1
    34    30    34    1
    35    31    32    1
    36    31    35    1
    37    32    33    1
    38    32    36    1
    39    33    41    1
    40    33    37    1
    41    41    42    1
    42    34    38    1
    43    35    39    1
    44    36    40    1
    45    42    43    1
@<TRIPOS>MOLECULE
GDU
 43 45 0 0 0
SMALL
GASTEIGER

@<TRIPOS>ATOM
      1 P          20.1915   71.4971   -0.7900 P.3     1  UNL1        0.2189
      2 O          19.7136   72.7201   -0.1076 O.2     1  UNL1       -0.5170
      3 O          21.0810   70.6258    0.2311 O.3     1  UNL1       -0.4371
      4 O          18.9301   70.6275   -1.2794 O.3     1  UNL1       -0.3112
      5 C          19.1755   70.2728   -2.6412 C.3     1  UNL1        0.1811
      6 C          17.2709   70.3902   -5.6885 C.3     1  UNL1        0.2383
      7 C          17.0689   68.9474   -5.1588 C.3     1  UNL1        0.1895
      8 O          15.7872   68.4401   -5.5370 O.3     1  UNL1       -0.3779
      9 C          17.1523   69.1504   -3.6235 C.3     1  UNL1        0.1713
     10 C          17.9027   70.4856   -3.4627 C.3     1  UNL1        0.1764
     11 O          18.2438   70.9493   -4.7806 O.3     1  UNL1       -0.3308
     12 O          15.8423   69.2339   -3.0587 O.3     1  UNL1       -0.3794
     13 H          15.7252   67.5437   -5.1786 H       1  UNL1        0.2106
     14 H          15.4037   68.3923   -3.2430 H       1  UNL1        0.2105
     15 N          17.7926   70.3715   -7.0561 N.ar    1  UNL1       -0.2551
     16 C          16.9842   70.6893   -8.0826 C.ar    1  UNL1        0.3323
     17 N          17.4399   70.6833   -9.3492 N.ar    1  UNL1       -0.2743
     18 C          18.7178   70.3472   -9.6105 C.ar    1  UNL1        0.2626
     19 C          19.5793   70.0046   -8.5396 C.ar    1  UNL1        0.0795
     20 C          19.0976   70.0229   -7.2786 C.ar    1  UNL1        0.0869
     21 O          15.8292   70.9950   -7.8625 O.2     1  UNL1       -0.2464
     22 O          19.1299   70.3369  -10.7570 O.2     1  UNL1       -0.2670
     23 H          16.8437   70.9195  -10.0775 H       1  UNL1        0.1734
     24 O          21.0872   71.9092   -2.0629 O.3     1  UNL1       -0.2703
     25 P          20.9991   73.5105   -2.1967 P.3     1  UNL1        0.2208
     26 O          19.5992   73.9457   -1.9971 O.2     1  UNL1       -0.5170
     27 O          21.9375   74.1945   -1.0805 O.3     1  UNL1       -0.4371
     28 O          21.4971   73.9560   -3.6608 O.3     1  UNL1       -0.2858
     29 C          21.4876   72.7838   -4.4768 C.3     1  UNL1        0.2704
     30 C          22.6422   72.8509   -5.4777 C.3     1  UNL1        0.1967
     31 C          22.4847   74.1093   -6.3368 C.3     1  UNL1        0.1715
     32 C          21.0830   74.1069   -6.9571 C.3     1  UNL1        0.1694
     33 C          20.0459   73.9464   -5.8429 C.3     1  UNL1        0.1761
     34 O          23.8840   72.9029   -4.7732 O.3     1  UNL1       -0.3775
     35 O          23.4704   74.1104   -7.3718 O.3     1  UNL1       -0.3794
     36 O          20.9709   73.0230   -7.8805 O.3     1  UNL1       -0.3794
     37 O          20.2467   72.7022   -5.1739 O.3     1  UNL1       -0.3258
     38 H          23.9371   72.0969   -4.2416 H       1  UNL1        0.2106
     39 H          24.3325   74.0997   -6.9372 H       1  UNL1        0.2105
     40 H          21.6446   73.1624   -8.5588 H       1  UNL1        0.2105
     41 C          18.6406   73.9772   -6.4481 C.3     1  UNL1        0.1693
     42 O          18.4451   75.2155   -7.1333 O.3     1  UNL1       -0.3794
     43 H          17.5504   75.1943   -7.4998 H       1  UNL1        0.2105
@<TRIPOS>BOND
     1    15    16   ar
     2    15    20   ar
     3    15     6    1
     4    16    17   ar
     5    16    21    2
     6    17    18   ar
     7    17    23    1
     8    18    19   ar
     9    18    22    2
    10    19    20   ar
    11     6     7    1
    12     6    11    1
    13     7     8    1
    14     7     9    1
    15     8    13    1
    16     9    10    1
    17     9    12    1
    18    10    11    1
    19    10     5    1
    20    12    14    1
    21     5     4    1
    22     4     1    1
    23     1     2    2
    24     1     3    1
    25     1    24    1
    26    24    25    1
    27    25    26    2
    28    25    27    1
    29    25    28    1
    30    28    29    1
    31    29    30    1
    32    29    37    1
    33    30    31    1
    34    30    34    1
    35    31    32    1
    36    31    35    1
    37    32    33    1
    38    32    36    1
    39    33    41    1
    40    33    37    1
    41    41    42    1
    42    34    38    1
    43    35    39    1
    44    36    40    1
    45    42    43    1
@<TRIPOS>MOLECULE
GDU
 43 45 0 0 0
SMALL
GASTEIGER

@<TRIPOS>ATOM
      1 P          15.4795   70.0776   -1.8898 P.3     1  UNL1        0.2189
      2 O          15.9875   71.1891   -1.0556 O.2     1  UNL1       -0.5170
      3 O          16.3656   68.7594   -1.6248 O.3     1  UNL1       -0.4371
      4 O          13.9456   69.7785   -1.5095 O.3     1  UNL1       -0.3112
      5 C          13.9197   69.4550   -0.1184 C.3     1  UNL1        0.1811
      6 C          12.8818   66.6051    1.8125 C.3     1  UNL1        0.2383
      7 C          11.5596   67.3177    1.4290 C.3     1  UNL1        0.1895
      8 O          10.4928   66.3757    1.2956 O.3     1  UNL1       -0.3779
      9 C          11.9160   67.9476    0.0573 C.3     1  UNL1        0.1713
     10 C          13.4548   68.0088    0.0621 C.3     1  UNL1        0.1764
     11 O          13.9018   67.5072    1.3336 O.3     1  UNL1       -0.3308
     12 O          11.4449   67.1216   -1.0093 O.3     1  UNL1       -0.3794
     13 H           9.7029   66.8809    1.0576 H       1  UNL1        0.2106
     14 H          10.4831   67.0745   -0.9232 H       1  UNL1        0.2105
     15 N          12.9792   66.4401    3.2637 N.ar    1  UNL1       -0.2551
     16 C          13.1826   67.5154    4.0450 C.ar    1  UNL1        0.3323
     17 N          13.2724   67.3915    5.3824 N.ar    1  UNL1       -0.2743
     18 C          13.1691   66.1798    5.9615 C.ar    1  UNL1        0.2626
     19 C          12.9604   65.0374    5.1505 C.ar    1  UNL1        0.0795
     20 C          12.8699   65.1905    3.8123 C.ar    1  UNL1        0.0869
     21 O          13.2773   68.6150    3.5371 O.2     1  UNL1       -0.2464
     22 O          13.2550   66.0661    7.1715 O.2     1  UNL1       -0.2670
     23 H          13.4151   68.1790    5.9313 H       1  UNL1        0.1734
     24 O          15.5786   70.4857   -3.4441 O.3     1  UNL1       -0.2703
     25 P          17.0603   71.0680   -3.6801 P.3     1  UNL1        0.2208
     26 O          17.0311   72.5441   -3.5831 O.2     1  UNL1       -0.5170
     27 O          18.0539   70.4765   -2.5589 O.3     1  UNL1       -0.4371
     28 O          17.5819   70.6353   -5.1398 O.3     1  UNL1       -0.2858
     29 C          17.6591   71.8271   -5.9230 C.3     1  UNL1        0.2704
     30 C          16.4940   71.8619   -6.9133 C.3     1  UNL1        0.1967
     31 C          16.5634   70.6209   -7.8086 C.3     1  UNL1        0.1715
     32 C          17.9570   70.5518   -8.4432 C.3     1  UNL1        0.1694
     33 C          19.0119   70.6144   -7.3357 C.3     1  UNL1        0.1761
     34 O          15.2575   71.8690   -6.1976 O.3     1  UNL1       -0.3775
     35 O          15.5708   70.7116   -8.8328 O.3     1  UNL1       -0.3794
     36 O          18.1300   71.6521   -9.3373 O.3     1  UNL1       -0.3794
     37 O          18.8966   71.8495   -6.6305 O.3     1  UNL1       -0.3258
     38 H          15.2605   72.6613   -5.6433 H       1  UNL1        0.2106
     39 H          14.7149   70.7648   -8.3891 H       1  UNL1        0.2105
     40 H          17.4431   71.5750  -10.0121 H       1  UNL1        0.2105
     41 C          20.4070   70.5116   -7.9562 C.3     1  UNL1        0.1693
     42 O          20.7504   71.7583   -8.5635 O.3     1  UNL1       -0.3794
     43 H          21.6344   71.6517   -8.9410 H       1  UNL1        0.2105
@<TRIPOS>BOND
     1    15    16   ar
     2    15    20   ar
     3    15     6    1
     4    16    17   ar
     5    16    21    2
     6    17    18   ar
     7    17    23    1
     8    18    19   ar
     9    18    22    2
    10    19    20   ar
    11     6     7    1
    12     6    11    1
    13     7     8    1
    14     7     9    1
    15     8    13    1
    16     9    10    1
    17     9    12    1
    18    10    11    1
    19    10     5    1
    20    12    14    1
    21     5     4    1
    22     4     1    1
    23     1     2    2
    24     1     3    1
    25     1    24    1
    26    24    25    1
    27    25    26    2
    28    25    27    1
    29    25    28    1
    30    28    29    1
    31    29    30    1
    32    29    37    1
    33    30    31    1
    34    30    34    1
    35    31    32    1
    36    31    35    1
    37    32    33    1
    38    32    36    1
    39    33    41    1
    40    33    37    1
    41    41    42    1
    42    34    38    1
    43    35    39    1
    44    36    40    1
    45    42    43    1
