@<TRIPOS>MOLECULE
UD2
 46 48 0 0 0
SMALL
GASTEIGER

@<TRIPOS>ATOM
      1 P          20.8117   71.8274   -2.5728 P.3     1  UNL1        0.2189
      2 O          22.0309   71.2427   -3.4463 O.3     1  UNL1       -0.4371
      3 O          20.9291   73.2996   -2.4842 O.2     1  UNL1       -0.5170
      4 O          19.4149   71.4418   -3.2756 O.3     1  UNL1       -0.3112
      5 C          18.1648   71.4641   -2.5842 C.3     1  UNL1        0.1811
      6 C          16.8280   70.5184   -5.7865 C.3     1  UNL1        0.2383
      7 C          17.0854   69.1741   -5.0593 C.3     1  UNL1        0.1895
      8 O          16.1472   68.1805   -5.4768 O.3     1  UNL1       -0.3779
      9 C          16.8600   69.5582   -3.5763 C.3     1  UNL1        0.1713
     10 C          17.0402   71.0881   -3.5521 C.3     1  UNL1        0.1764
     11 O          17.3842   71.4996   -4.8846 O.3     1  UNL1       -0.3308
     12 O          15.5391   69.2030   -3.1642 O.3     1  UNL1       -0.3794
     13 H          16.2678   67.3214   -5.0501 H       1  UNL1        0.2106
     14 H          15.3513   68.2562   -3.2161 H       1  UNL1        0.2105
     15 N          17.5230   70.5490   -7.0753 N.ar    1  UNL1       -0.2551
     16 C          16.8111   70.5691   -8.2161 C.ar    1  UNL1        0.3323
     17 N          17.4235   70.5972   -9.4146 N.ar    1  UNL1       -0.2743
     18 C          18.7700   70.6075   -9.4886 C.ar    1  UNL1        0.2626
     19 C          19.5319   70.5876   -8.2957 C.ar    1  UNL1        0.0795
     20 C          18.8915   70.5639   -7.1079 C.ar    1  UNL1        0.0869
     21 O          15.5963   70.5604   -8.1645 O.2     1  UNL1       -0.2464
     22 O          19.3255   70.6334  -10.5727 O.2     1  UNL1       -0.2670
     23 H          16.8951   70.6103  -10.2274 H       1  UNL1        0.1734
     24 O          20.8596   71.1947   -1.0927 O.3     1  UNL1       -0.2703
     25 P          21.9593   71.1844    0.0835 P.3     1  UNL1        0.2208
     26 O          21.6228   70.0001    1.1218 O.3     1  UNL1       -0.4371
     27 O          23.3016   70.9634   -0.4977 O.2     1  UNL1       -0.5170
     28 O          21.9338   72.5979    0.8543 O.3     1  UNL1       -0.2865
     29 C          22.1119   72.7175    2.2669 C.3     1  UNL1        0.2611
     30 C          22.1417   74.1979    2.6548 C.3     1  UNL1        0.1582
     31 C          23.3392   74.8705    1.9764 C.3     1  UNL1        0.1625
     32 C          24.6206   74.1379    2.3833 C.3     1  UNL1        0.1686
     33 C          24.4952   72.6595    2.0057 C.3     1  UNL1        0.1760
     34 O          23.4175   76.2361    2.3913 O.3     1  UNL1       -0.3801
     35 O          24.8111   74.2565    3.7943 O.3     1  UNL1       -0.3794
     36 O          23.3451   72.1022    2.6449 O.3     1  UNL1       -0.3263
     37 H          24.1542   76.7244    1.9987 H       1  UNL1        0.2105
     38 H          25.6061   73.8139    4.1231 H       1  UNL1        0.2105
     39 C          20.2811   75.7286    3.0190 C.2     1  UNL1        0.2231
     40 C          19.0076   76.3936    2.5669 C.3     1  UNL1        0.0946
     41 N          20.9028   74.8441    2.2144 N.am    1  UNL1       -0.2994
     42 O          20.7481   75.9890    4.1082 O.2     1  UNL1       -0.2751
     43 H          20.5293   74.6349    1.3439 H       1  UNL1        0.1496
     44 C          25.7472   71.9086    2.4628 C.3     1  UNL1        0.1693
     45 O          25.8921   70.7114    1.6960 O.3     1  UNL1       -0.3794
     46 H          26.6670   70.1836    1.9324 H       1  UNL1        0.2105
@<TRIPOS>BOND
     1    29    30    1
     2    30    41    1
     3    30    31    1
     4    31    34    1
     5    31    32    1
     6    32    35    1
     7    32    33    1
     8    33    36    1
     9    33    44    1
    10    39    40    1
    11    39    42    2
    12    39    41   am
    13    41    43    1
    14    29    28    1
    15    34    37    1
    16    35    38    1
    17    29    36    1
    18    44    45    1
    19    45    46    1
    20    15     6    1
    21    15    16   ar
    22    16    21    2
    23    16    17   ar
    24    17    23    1
    25    17    18   ar
    26    18    19   ar
    27    19    20   ar
    28    15    20   ar
    29    18    22    2
    30     6     7    1
    31     6    11    1
    32     7     9    1
    33     7     8    1
    34     8    13    1
    35     9    10    1
    36     9    12    1
    37    10     5    1
    38    10    11    1
    39    12    14    1
    40     5     4    1
    41     4     1    1
    42     1     2    1
    43     1    24    1
    44     1     3    2
    45    24    25    1
    46    28    25    1
    47    25    26    1
    48    25    27    2
@<TRIPOS>MOLECULE
UD2
 46 48 0 0 0
SMALL
GASTEIGER

@<TRIPOS>ATOM
      1 P          21.2234   71.8899   -2.2216 P.3     1  UNL1        0.2189
      2 O          22.5303   70.9549   -2.3176 O.3     1  UNL1       -0.4371
      3 O          21.5442   73.2410   -2.7320 O.2     1  UNL1       -0.5170
      4 O          20.0394   71.2494   -3.1056 O.3     1  UNL1       -0.3112
      5 C          18.9739   70.4840   -2.5397 C.3     1  UNL1        0.1811
      6 C          17.1873   70.4846   -5.6614 C.3     1  UNL1        0.2383
      7 C          17.0422   69.0361   -5.1296 C.3     1  UNL1        0.1895
      8 O          15.8056   68.4587   -5.5531 O.3     1  UNL1       -0.3779
      9 C          17.0556   69.2496   -3.5961 C.3     1  UNL1        0.1713
     10 C          17.7250   70.6252   -3.4133 C.3     1  UNL1        0.1764
     11 O          18.0926   71.0989   -4.7187 O.3     1  UNL1       -0.3308
     12 O          15.7223   69.2697   -3.0835 O.3     1  UNL1       -0.3794
     13 H          15.6688   67.5523   -5.2459 H       1  UNL1        0.2106
     14 H          15.2335   68.4477   -3.2245 H       1  UNL1        0.2105
     15 N          17.7651   70.4846   -7.0072 N.ar    1  UNL1       -0.2551
     16 C          16.9550   70.4488   -8.0802 C.ar    1  UNL1        0.3323
     17 N          17.4585   70.4476   -9.3286 N.ar    1  UNL1       -0.2743
     18 C          18.7925   70.4845   -9.5225 C.ar    1  UNL1        0.2626
     19 C          19.6569   70.5235   -8.4021 C.ar    1  UNL1        0.0795
     20 C          19.1246   70.5280   -7.1619 C.ar    1  UNL1        0.0869
     21 O          15.7501   70.4155   -7.9204 O.2     1  UNL1       -0.2464
     22 O          19.2495   70.4839  -10.6520 O.2     1  UNL1       -0.2670
     23 H          16.8603   70.4203  -10.0912 H       1  UNL1        0.1734
     24 O          20.7495   71.9943   -0.6861 O.3     1  UNL1       -0.2703
     25 P          21.4992   71.8264    0.7290 P.3     1  UNL1        0.2208
     26 O          21.5293   70.2690    1.1383 O.3     1  UNL1       -0.4371
     27 O          22.8845   72.3332    0.6170 O.2     1  UNL1       -0.5170
     28 O          20.7107   72.6629    1.8566 O.3     1  UNL1       -0.2865
     29 C          20.8816   74.0688    2.0446 C.3     1  UNL1        0.2611
     30 C          20.4581   74.4497    3.4653 C.3     1  UNL1        0.1582
     31 C          18.9704   74.1335    3.6474 C.3     1  UNL1        0.1625
     32 C          18.1660   74.8825    2.5814 C.3     1  UNL1        0.1686
     33 C          18.6780   74.4848    1.1944 C.3     1  UNL1        0.1760
     34 O          18.5487   74.5539    4.9469 O.3     1  UNL1       -0.3801
     35 O          18.3256   76.2905    2.7643 O.3     1  UNL1       -0.3794
     36 O          20.0738   74.7767    1.1019 O.3     1  UNL1       -0.3263
     37 H          17.6149   74.3831    5.1314 H       1  UNL1        0.2105
     38 H          17.8426   76.8286    2.1214 H       1  UNL1        0.2105
     39 C          22.1119   74.3105    5.2494 C.2     1  UNL1        0.2231
     40 C          22.9203   73.5204    6.2448 C.3     1  UNL1        0.0946
     41 N          21.2442   73.6805    4.4331 N.am    1  UNL1       -0.2994
     42 O          22.2415   75.5150    5.1821 O.2     1  UNL1       -0.2751
     43 H          21.1410   72.7174    4.4859 H       1  UNL1        0.1496
     44 C          17.9196   75.2738    0.1255 C.3     1  UNL1        0.1693
     45 O          17.2158   74.3678   -0.7267 O.3     1  UNL1       -0.3794
     46 H          16.7115   74.7996   -1.4297 H       1  UNL1        0.2105
@<TRIPOS>BOND
     1    29    30    1
     2    30    41    1
     3    30    31    1
     4    31    34    1
     5    31    32    1
     6    32    35    1
     7    32    33    1
     8    33    36    1
     9    33    44    1
    10    39    40    1
    11    39    42    2
    12    39    41   am
    13    41    43    1
    14    29    28    1
    15    34    37    1
    16    35    38    1
    17    29    36    1
    18    44    45    1
    19    45    46    1
    20    15     6    1
    21    15    16   ar
    22    16    21    2
    23    16    17   ar
    24    17    23    1
    25    17    18   ar
    26    18    19   ar
    27    19    20   ar
    28    15    20   ar
    29    18    22    2
    30     6     7    1
    31     6    11    1
    32     7     9    1
    33     7     8    1
    34     8    13    1
    35     9    10    1
    36     9    12    1
    37    10     5    1
    38    10    11    1
    39    12    14    1
    40     5     4    1
    41     4     1    1
    42     1     2    1
    43     1    24    1
    44     1     3    2
    45    24    25    1
    46    28    25    1
    47    25    26    1
    48    25    27    2
@<TRIPOS>MOLECULE
UD2
 46 48 0 0 0
SMALL
GASTEIGER

@<TRIPOS>ATOM
      1 P          20.5015   72.4769   -1.6707 P.3     1  UNL1        0.2189
      2 O          20.5948   73.9214   -2.3749 O.3     1  UNL1       -0.4371
      3 O          19.4579   72.5050   -0.6223 O.2     1  UNL1       -0.5170
      4 O          20.1244   71.3657   -2.7737 O.3     1  UNL1       -0.3112
      5 C          19.1995   70.3056   -2.5242 C.3     1  UNL1        0.1811
      6 C          17.3136   70.4644   -5.5828 C.3     1  UNL1        0.2383
      7 C          17.1097   69.0147   -5.0741 C.3     1  UNL1        0.1895
      8 O          15.8311   68.5116   -5.4662 O.3     1  UNL1       -0.3779
      9 C          17.1849   69.1953   -3.5381 C.3     1  UNL1        0.1713
     10 C          17.9317   70.5299   -3.3521 C.3     1  UNL1        0.1764
     11 O          18.2807   71.0108   -4.6599 O.3     1  UNL1       -0.3308
     12 O          15.8721   69.2743   -2.9803 O.3     1  UNL1       -0.3794
     13 H          15.6567   67.6074   -5.1718 H       1  UNL1        0.2106
     14 H          15.3362   68.4820   -3.1202 H       1  UNL1        0.2105
     15 N          17.8460   70.4621   -6.9473 N.ar    1  UNL1       -0.2551
     16 C          17.0002   70.4307   -7.9925 C.ar    1  UNL1        0.3323
     17 N          17.4616   70.4277   -9.2571 N.ar    1  UNL1       -0.2743
     18 C          18.7885   70.4582   -9.4956 C.ar    1  UNL1        0.2626
     19 C          19.6902   70.4925   -8.4048 C.ar    1  UNL1        0.0795
     20 C          19.1997   70.4990   -7.1474 C.ar    1  UNL1        0.0869
     21 O          15.8012   70.4032   -7.7924 O.2     1  UNL1       -0.2464
     22 O          19.2074   70.4559  -10.6397 O.2     1  UNL1       -0.2670
     23 H          16.8380   70.4036   -9.9992 H       1  UNL1        0.1734
     24 O          21.9216   72.1112   -1.0052 O.3     1  UNL1       -0.2703
     25 P          22.3627   71.4517    0.3960 P.3     1  UNL1        0.2208
     26 O          21.3413   70.2659    0.7757 O.3     1  UNL1       -0.4371
     27 O          23.7311   70.9031    0.2742 O.2     1  UNL1       -0.5170
     28 O          22.3349   72.5745    1.5498 O.3     1  UNL1       -0.2865
     29 C          23.0627   73.8008    1.4604 C.3     1  UNL1        0.2611
     30 C          24.0550   73.8922    2.6222 C.3     1  UNL1        0.1582
     31 C          23.2806   73.9062    3.9438 C.3     1  UNL1        0.1625
     32 C          22.2920   75.0753    3.9315 C.3     1  UNL1        0.1686
     33 C          21.3674   74.9381    2.7190 C.3     1  UNL1        0.1760
     34 O          24.1950   74.0654    5.0309 O.3     1  UNL1       -0.3801
     35 O          23.0103   76.3075    3.8480 O.3     1  UNL1       -0.3794
     36 O          22.1521   74.9003    1.5254 O.3     1  UNL1       -0.3263
     37 H          23.7724   74.0820    5.9006 H       1  UNL1        0.2105
     38 H          22.4454   77.0928    3.8350 H       1  UNL1        0.2105
     39 C          26.2638   72.8902    2.8562 C.2     1  UNL1        0.2231
     40 C          27.1862   71.6999    2.8258 C.3     1  UNL1        0.0946
     41 N          24.9516   72.7339    2.5922 N.am    1  UNL1       -0.2994
     42 O          26.7020   73.9909    3.1184 O.2     1  UNL1       -0.2751
     43 H          24.6010   71.8543    2.3815 H       1  UNL1        0.1496
     44 C          20.4152   76.1344    2.6661 C.3     1  UNL1        0.1693
     45 O          21.0157   77.1890    1.9114 O.3     1  UNL1       -0.3794
     46 H          20.4667   77.9815    1.8362 H       1  UNL1        0.2105
@<TRIPOS>BOND
     1    29    30    1
     2    30    41    1
     3    30    31    1
     4    31    34    1
     5    31    32    1
     6    32    35    1
     7    32    33    1
     8    33    36    1
     9    33    44    1
    10    39    40    1
    11    39    42    2
    12    39    41   am
    13    41    43    1
    14    29    28    1
    15    34    37    1
    16    35    38    1
    17    29    36    1
    18    44    45    1
    19    45    46    1
    20    15     6    1
    21    15    16   ar
    22    16    21    2
    23    16    17   ar
    24    17    23    1
    25    17    18   ar
    26    18    19   ar
    27    19    20   ar
    28    15    20   ar
    29    18    22    2
    30     6     7    1
    31     6    11    1
    32     7     9    1
    33     7     8    1
    34     8    13    1
    35     9    10    1
    36     9    12    1
    37    10     5    1
    38    10    11    1
    39    12    14    1
    40     5     4    1
    41     4     1    1
    42     1     2    1
    43     1    24    1
    44     1     3    2
    45    24    25    1
    46    28    25    1
    47    25    26    1
    48    25    27    2
@<TRIPOS>MOLECULE
UD2
 46 48 0 0 0
SMALL
GASTEIGER

@<TRIPOS>ATOM
      1 P          19.2744   72.9454   -1.2566 P.3     1  UNL1        0.2189
      2 O          20.0396   74.3056   -1.6512 O.3     1  UNL1       -0.4371
      3 O          17.8569   73.2452   -0.9571 O.2     1  UNL1       -0.5170
      4 O          19.3556   71.9083   -2.4860 O.3     1  UNL1       -0.3112
      5 C          18.7034   70.6370   -2.4746 C.3     1  UNL1        0.1811
      6 C          17.0343   70.4905   -5.6572 C.3     1  UNL1        0.2383
      7 C          16.9726   69.0389   -5.1176 C.3     1  UNL1        0.1895
      8 O          15.7958   68.3727   -5.5791 O.3     1  UNL1       -0.3779
      9 C          16.9160   69.2631   -3.5866 C.3     1  UNL1        0.1713
     10 C          17.4798   70.6837   -3.3930 C.3     1  UNL1        0.1764
     11 O          17.8597   71.1735   -4.6889 O.3     1  UNL1       -0.3308
     12 O          15.5671   69.1921   -3.1216 O.3     1  UNL1       -0.3794
     13 H          15.7122   67.4610   -5.2687 H       1  UNL1        0.2106
     14 H          15.1428   68.3367   -3.2722 H       1  UNL1        0.2105
     15 N          17.6585   70.5224   -6.9817 N.ar    1  UNL1       -0.2551
     16 C          16.8889   70.4568   -8.0828 C.ar    1  UNL1        0.3323
     17 N          17.4356   70.4838   -9.3127 N.ar    1  UNL1       -0.2743
     18 C          18.7727   70.5796   -9.4592 C.ar    1  UNL1        0.2626
     19 C          19.5947   70.6505   -8.3087 C.ar    1  UNL1        0.0795
     20 C          19.0194   70.6256   -7.0881 C.ar    1  UNL1        0.0869
     21 O          15.6818   70.3703   -7.9658 O.2     1  UNL1       -0.2464
     22 O          19.2687   70.6046  -10.5718 O.2     1  UNL1       -0.2670
     23 H          16.8663   70.4343  -10.0961 H       1  UNL1        0.1734
     24 O          19.9714   72.2943    0.0409 O.3     1  UNL1       -0.2703
     25 P          21.4976   71.9961    0.4588 P.3     1  UNL1        0.2208
     26 O          21.5307   71.3154    1.9180 O.3     1  UNL1       -0.4371
     27 O          22.1091   71.0782   -0.5270 O.2     1  UNL1       -0.5170
     28 O          22.3246   73.3773    0.4917 O.3     1  UNL1       -0.2865
     29 C          23.6956   73.4546    0.8860 C.3     1  UNL1        0.2611
     30 C          23.8217   74.3429    2.1260 C.3     1  UNL1        0.1582
     31 C          23.3575   75.7604    1.7773 C.3     1  UNL1        0.1625
     32 C          24.1877   76.2833    0.6019 C.3     1  UNL1        0.1686
     33 C          24.0474   75.3199   -0.5797 C.3     1  UNL1        0.1760
     34 O          23.5408   76.6144    2.9089 O.3     1  UNL1       -0.3801
     35 O          25.5606   76.3698    0.9879 O.3     1  UNL1       -0.3794
     36 O          24.4665   74.0137   -0.1796 O.3     1  UNL1       -0.3263
     37 H          23.2662   77.5295    2.7590 H       1  UNL1        0.2105
     38 H          26.1464   76.6942    0.2896 H       1  UNL1        0.2105
     39 C          23.4454   73.7823    4.4673 C.2     1  UNL1        0.2231
     40 C          22.5855   73.2287    5.5731 C.3     1  UNL1        0.0946
     41 N          22.9848   73.8041    3.2010 N.am    1  UNL1       -0.2994
     42 O          24.5537   74.2090    4.7162 O.2     1  UNL1       -0.2751
     43 H          22.0992   73.4621    3.0015 H       1  UNL1        0.1496
     44 C          24.9213   75.8038   -1.7384 C.3     1  UNL1        0.1693
     45 O          24.9086   74.8301   -2.7844 O.3     1  UNL1       -0.3794
     46 H          25.4431   75.0711   -3.5534 H       1  UNL1        0.2105
@<TRIPOS>BOND
     1    29    30    1
     2    30    41    1
     3    30    31    1
     4    31    34    1
     5    31    32    1
     6    32    35    1
     7    32    33    1
     8    33    36    1
     9    33    44    1
    10    39    40    1
    11    39    42    2
    12    39    41   am
    13    41    43    1
    14    29    28    1
    15    34    37    1
    16    35    38    1
    17    29    36    1
    18    44    45    1
    19    45    46    1
    20    15     6    1
    21    15    16   ar
    22    16    21    2
    23    16    17   ar
    24    17    23    1
    25    17    18   ar
    26    18    19   ar
    27    19    20   ar
    28    15    20   ar
    29    18    22    2
    30     6     7    1
    31     6    11    1
    32     7     9    1
    33     7     8    1
    34     8    13    1
    35     9    10    1
    36     9    12    1
    37    10     5    1
    38    10    11    1
    39    12    14    1
    40     5     4    1
    41     4     1    1
    42     1     2    1
    43     1    24    1
    44     1     3    2
    45    24    25    1
    46    28    25    1
    47    25    26    1
    48    25    27    2
@<TRIPOS>MOLECULE
UD2
 46 48 0 0 0
SMALL
GASTEIGER

@<TRIPOS>ATOM
      1 P          21.9396   71.2531   -0.0478 P.3     1  UNL1        0.2189
      2 O          23.4932   70.9780   -0.3673 O.3     1  UNL1       -0.4371
      3 O          21.4047   70.1543    0.7861 O.2     1  UNL1       -0.5170
      4 O          21.7935   72.6478    0.7441 O.3     1  UNL1       -0.3112
      5 C          21.7600   72.7321    2.1700 C.3     1  UNL1        0.1811
      6 C          25.0613   73.9181    2.9649 C.3     1  UNL1        0.2383
      7 C          24.8452   74.3288    1.4862 C.3     1  UNL1        0.1895
      8 O          25.5567   75.5299    1.1812 O.3     1  UNL1       -0.3779
      9 C          23.3158   74.5645    1.4342 C.3     1  UNL1        0.1713
     10 C          22.7724   73.7784    2.6426 C.3     1  UNL1        0.1764
     11 O          23.8905   73.1290    3.2684 O.3     1  UNL1       -0.3308
     12 O          23.0205   75.9558    1.5682 O.3     1  UNL1       -0.3794
     13 H          25.4533   75.8273    0.2672 H       1  UNL1        0.2106
     14 H          23.3897   76.5065    0.8647 H       1  UNL1        0.2105
     15 N          26.2768   73.1131    3.1044 N.ar    1  UNL1       -0.2551
     16 C          26.2994   71.8533    2.6341 C.ar    1  UNL1        0.3323
     17 N          27.4028   71.0907    2.7488 N.ar    1  UNL1       -0.2743
     18 C          28.5102   71.5837    3.3397 C.ar    1  UNL1        0.2626
     19 C          28.5008   72.9086    3.8383 C.ar    1  UNL1        0.0795
     20 C          27.3821   73.6520    3.7060 C.ar    1  UNL1        0.0869
     21 O          25.3082   71.3958    2.0987 O.2     1  UNL1       -0.2464
     22 O          29.5096   70.8946    3.4438 O.2     1  UNL1       -0.2670
     23 H          27.4016   70.1839    2.4053 H       1  UNL1        0.1734
     24 O          21.1132   71.3312   -1.4277 O.3     1  UNL1       -0.2703
     25 P          21.5160   71.6392   -2.9560 P.3     1  UNL1        0.2208
     26 O          22.1193   73.1287   -3.0617 O.3     1  UNL1       -0.4371
     27 O          22.5327   70.6629   -3.4049 O.2     1  UNL1       -0.5170
     28 O          20.2094   71.5215   -3.8895 O.3     1  UNL1       -0.2865
     29 C          19.9285   70.3751   -4.6946 C.3     1  UNL1        0.2611
     30 C          19.8311   70.7936   -6.1637 C.3     1  UNL1        0.1582
     31 C          18.6669   71.7751   -6.3299 C.3     1  UNL1        0.1625
     32 C          17.3802   71.1140   -5.8281 C.3     1  UNL1        0.1686
     33 C          17.5722   70.6832   -4.3716 C.3     1  UNL1        0.1760
     34 O          18.5223   72.1145   -7.7109 O.3     1  UNL1       -0.3801
     35 O          17.0872   69.9690   -6.6308 O.3     1  UNL1       -0.3794
     36 O          18.6889   69.7960   -4.2822 O.3     1  UNL1       -0.3263
     37 H          17.8023   72.7348   -7.8897 H       1  UNL1        0.2105
     38 H          16.2832   69.4992   -6.3683 H       1  UNL1        0.2105
     39 C          21.1810   72.7854   -6.5488 C.2     1  UNL1        0.2231
     40 C          22.4647   73.4524   -6.9679 C.3     1  UNL1        0.0946
     41 N          21.0801   71.4417   -6.5717 N.am    1  UNL1       -0.2994
     42 O          20.2367   73.4577   -6.1903 O.2     1  UNL1       -0.2751
     43 H          21.8344   70.9038   -6.8592 H       1  UNL1        0.1496
     44 C          16.3118   69.9682   -3.8811 C.3     1  UNL1        0.1693
     45 O          16.2707   68.6470   -4.4245 O.3     1  UNL1       -0.3794
     46 H          15.4965   68.1342   -4.1551 H       1  UNL1        0.2105
@<TRIPOS>BOND
     1    29    30    1
     2    30    41    1
     3    30    31    1
     4    31    34    1
     5    31    32    1
     6    32    35    1
     7    32    33    1
     8    33    36    1
     9    33    44    1
    10    39    40    1
    11    39    42    2
    12    39    41   am
    13    41    43    1
    14    29    28    1
    15    34    37    1
    16    35    38    1
    17    29    36    1
    18    44    45    1
    19    45    46    1
    20    15     6    1
    21    15    16   ar
    22    16    21    2
    23    16    17   ar
    24    17    23    1
    25    17    18   ar
    26    18    19   ar
    27    19    20   ar
    28    15    20   ar
    29    18    22    2
    30     6     7    1
    31     6    11    1
    32     7     9    1
    33     7     8    1
    34     8    13    1
    35     9    10    1
    36     9    12    1
    37    10     5    1
    38    10    11    1
    39    12    14    1
    40     5     4    1
    41     4     1    1
    42     1     2    1
    43     1    24    1
    44     1     3    2
    45    24    25    1
    46    28    25    1
    47    25    26    1
    48    25    27    2
@<TRIPOS>MOLECULE
UD2
 46 48 0 0 0
SMALL
GASTEIGER

@<TRIPOS>ATOM
      1 P          16.2971   69.6897   -2.7618 P.3     1  UNL1        0.2189
      2 O          17.1892   68.6434   -1.9246 O.3     1  UNL1       -0.4371
      3 O          15.9390   69.0979   -4.0696 O.2     1  UNL1       -0.5170
      4 O          14.9540   70.0277   -1.9398 O.3     1  UNL1       -0.3112
      5 C          14.5510   69.3017   -0.7771 C.3     1  UNL1        0.1811
      6 C          11.0513   68.4721   -0.7540 C.3     1  UNL1        0.2383
      7 C          11.5662   68.0283    0.6388 C.3     1  UNL1        0.1895
      8 O          10.5368   68.1422    1.6233 O.3     1  UNL1       -0.3779
      9 C          12.7011   69.0471    0.9059 C.3     1  UNL1        0.1713
     10 C          13.0716   69.5736   -0.4938 C.3     1  UNL1        0.1764
     11 O          12.2548   68.8721   -1.4447 O.3     1  UNL1       -0.3308
     12 O          12.2306   70.1125    1.7332 O.3     1  UNL1       -0.3794
     13 H          10.8103   67.8754    2.5114 H       1  UNL1        0.2106
     14 H          11.9284   69.8293    2.6066 H       1  UNL1        0.2105
     15 N          10.4063   67.3540   -1.4458 N.ar    1  UNL1       -0.2551
     16 C           9.3839   67.5912   -2.2868 C.ar    1  UNL1        0.3323
     17 N           8.7724   66.5828   -2.9359 N.ar    1  UNL1       -0.2743
     18 C           9.1807   65.3108   -2.7519 C.ar    1  UNL1        0.2626
     19 C          10.2564   65.0467   -1.8704 C.ar    1  UNL1        0.0795
     20 C          10.8538   66.0774   -1.2361 C.ar    1  UNL1        0.0869
     21 O           9.0052   68.7332   -2.4624 O.2     1  UNL1       -0.2464
     22 O           8.6284   64.3972   -3.3391 O.2     1  UNL1       -0.2670
     23 H           8.0359   66.7713   -3.5377 H       1  UNL1        0.1734
     24 O          17.1366   71.0436   -2.9968 O.3     1  UNL1       -0.2703
     25 P          17.0094   72.2729   -4.0291 P.3     1  UNL1        0.2208
     26 O          15.5154   72.3169   -4.6290 O.3     1  UNL1       -0.4371
     27 O          17.2945   73.5415   -3.3236 O.2     1  UNL1       -0.5170
     28 O          18.0646   72.0770   -5.2295 O.3     1  UNL1       -0.2865
     29 C          18.8224   70.8796   -5.4121 C.3     1  UNL1        0.2611
     30 C          20.3155   71.2160   -5.4208 C.3     1  UNL1        0.1582
     31 C          20.6148   72.1409   -6.6046 C.3     1  UNL1        0.1625
     32 C          20.1663   71.4572   -7.8990 C.3     1  UNL1        0.1686
     33 C          18.6785   71.1115   -7.7948 C.3     1  UNL1        0.1760
     34 O          22.0192   72.4011   -6.6637 O.3     1  UNL1       -0.3801
     35 O          20.9226   70.2608   -8.0941 O.3     1  UNL1       -0.3794
     36 O          18.4641   70.2748   -6.6564 O.3     1  UNL1       -0.3263
     37 H          22.2808   72.9824   -7.3909 H       1  UNL1        0.2105
     38 H          20.6901   69.7743   -8.8973 H       1  UNL1        0.2105
     39 C          21.3137   71.2121   -3.1979 C.2     1  UNL1        0.2231
     40 C          21.6812   71.9046   -1.9118 C.3     1  UNL1        0.0946
     41 N          20.6725   71.8903   -4.1700 N.am    1  UNL1       -0.2994
     42 O          21.5947   70.0428   -3.3592 O.2     1  UNL1       -0.2751
     43 H          20.4467   72.8248   -4.0411 H       1  UNL1        0.1496
     44 C          18.2365   70.3744   -9.0604 C.3     1  UNL1        0.1693
     45 O          18.6867   71.0912  -10.2118 O.3     1  UNL1       -0.3794
     46 H          18.4416   70.6806  -11.0522 H       1  UNL1        0.2105
@<TRIPOS>BOND
     1    29    30    1
     2    30    41    1
     3    30    31    1
     4    31    34    1
     5    31    32    1
     6    32    35    1
     7    32    33    1
     8    33    36    1
     9    33    44    1
    10    39    40    1
    11    39    42    2
    12    39    41   am
    13    41    43    1
    14    29    28    1
    15    34    37    1
    16    35    38    1
    17    29    36    1
    18    44    45    1
    19    45    46    1
    20    15     6    1
    21    15    16   ar
    22    16    21    2
    23    16    17   ar
    24    17    23    1
    25    17    18   ar
    26    18    19   ar
    27    19    20   ar
    28    15    20   ar
    29    18    22    2
    30     6     7    1
    31     6    11    1
    32     7     9    1
    33     7     8    1
    34     8    13    1
    35     9    10    1
    36     9    12    1
    37    10     5    1
    38    10    11    1
    39    12    14    1
    40     5     4    1
    41     4     1    1
    42     1     2    1
    43     1    24    1
    44     1     3    2
    45    24    25    1
    46    28    25    1
    47    25    26    1
    48    25    27    2
@<TRIPOS>MOLECULE
UD2
 46 48 0 0 0
SMALL
GASTEIGER

@<TRIPOS>ATOM
      1 P          21.7700   72.5147   -6.0535 P.3     1  UNL1        0.2189
      2 O          23.0607   73.1749   -6.7532 O.3     1  UNL1       -0.4371
      3 O          20.6794   73.5122   -5.9877 O.2     1  UNL1       -0.5170
      4 O          21.2839   71.2438   -6.9151 O.3     1  UNL1       -0.3112
      5 C          20.5575   71.3668   -8.1392 C.3     1  UNL1        0.1811
      6 C          17.4175   70.1554   -6.8706 C.3     1  UNL1        0.2383
      7 C          17.0269   71.1407   -8.0014 C.3     1  UNL1        0.1895
      8 O          15.8041   70.7431   -8.6246 O.3     1  UNL1       -0.3779
      9 C          18.2175   70.9998   -8.9813 C.3     1  UNL1        0.1713
     10 C          19.3527   70.4230   -8.1140 C.3     1  UNL1        0.1764
     11 O          18.8503   70.3076   -6.7732 O.3     1  UNL1       -0.3308
     12 O          17.8886   70.0984  -10.0396 O.3     1  UNL1       -0.3794
     13 H          15.5175   71.3288   -9.3384 H       1  UNL1        0.2106
     14 H          17.1413   70.3837  -10.5823 H       1  UNL1        0.2105
     15 N          16.7713   70.5327   -5.6116 N.ar    1  UNL1       -0.2551
     16 C          16.6006   69.6106   -4.6477 C.ar    1  UNL1        0.3323
     17 N          16.0098   69.9294   -3.4808 N.ar    1  UNL1       -0.2743
     18 C          15.5792   71.1880   -3.2596 C.ar    1  UNL1        0.2626
     19 C          15.7534   72.1691   -4.2653 C.ar    1  UNL1        0.0795
     20 C          16.3528   71.8225   -5.4238 C.ar    1  UNL1        0.0869
     21 O          16.9841   68.4718   -4.8332 O.2     1  UNL1       -0.2464
     22 O          15.0447   71.4779   -2.2038 O.2     1  UNL1       -0.2670
     23 H          15.8935   69.2520   -2.7969 H       1  UNL1        0.1734
     24 O          22.1520   72.0376   -4.5636 O.3     1  UNL1       -0.2703
     25 P          23.2934   72.4649   -3.5112 P.3     1  UNL1        0.2208
     26 O          23.5427   71.2600   -2.4720 O.3     1  UNL1       -0.4371
     27 O          24.5490   72.7576   -4.2365 O.2     1  UNL1       -0.5170
     28 O          22.8186   73.7772   -2.7080 O.3     1  UNL1       -0.2865
     29 C          21.8553   73.7386   -1.6537 C.3     1  UNL1        0.2611
     30 C          22.3946   72.8905   -0.4993 C.3     1  UNL1        0.1582
     31 C          22.6071   71.4544   -0.9880 C.3     1  UNL1        0.1625
     32 C          21.2848   70.9127   -1.5377 C.3     1  UNL1        0.1686
     33 C          20.7881   71.8372   -2.6524 C.3     1  UNL1        0.1760
     34 O          23.0410   70.6385    0.1026 O.3     1  UNL1       -0.3801
     35 O          20.3155   70.8646   -0.4891 O.3     1  UNL1       -0.3794
     36 O          20.6409   73.1628   -2.1395 O.3     1  UNL1       -0.3263
     37 H          23.1961   69.7142   -0.1357 H       1  UNL1        0.2105
     38 H          19.4509   70.5308   -0.7668 H       1  UNL1        0.2105
     39 C          23.7797   73.9373    1.2106 C.2     1  UNL1        0.2231
     40 C          25.0909   74.5073    1.6844 C.3     1  UNL1        0.0946
     41 N          23.6703   73.4450   -0.0392 N.am    1  UNL1       -0.2994
     42 O          22.8210   73.9212    1.9541 O.2     1  UNL1       -0.2751
     43 H          24.4363   73.4586   -0.6343 H       1  UNL1        0.1496
     44 C          19.4373   71.3359   -3.1665 C.3     1  UNL1        0.1693
     45 O          19.4191   69.9071   -3.1452 O.3     1  UNL1       -0.3794
     46 H          18.5908   69.5190   -3.4588 H       1  UNL1        0.2105
@<TRIPOS>BOND
     1    29    30    1
     2    30    41    1
     3    30    31    1
     4    31    34    1
     5    31    32    1
     6    32    35    1
     7    32    33    1
     8    33    36    1
     9    33    44    1
    10    39    40    1
    11    39    42    2
    12    39    41   am
    13    41    43    1
    14    29    28    1
    15    34    37    1
    16    35    38    1
    17    29    36    1
    18    44    45    1
    19    45    46    1
    20    15     6    1
    21    15    16   ar
    22    16    21    2
    23    16    17   ar
    24    17    23    1
    25    17    18   ar
    26    18    19   ar
    27    19    20   ar
    28    15    20   ar
    29    18    22    2
    30     6     7    1
    31     6    11    1
    32     7     9    1
    33     7     8    1
    34     8    13    1
    35     9    10    1
    36     9    12    1
    37    10     5    1
    38    10    11    1
    39    12    14    1
    40     5     4    1
    41     4     1    1
    42     1     2    1
    43     1    24    1
    44     1     3    2
    45    24    25    1
    46    28    25    1
    47    25    26    1
    48    25    27    2
@<TRIPOS>MOLECULE
UD2
 46 48 0 0 0
SMALL
GASTEIGER

@<TRIPOS>ATOM
      1 P          22.5326   71.2519   -2.6047 P.3     1  UNL1        0.2189
      2 O          23.9858   70.9324   -3.2193 O.3     1  UNL1       -0.4371
      3 O          22.1113   72.6099   -3.0133 O.2     1  UNL1       -0.5170
      4 O          21.4697   70.1727   -3.1519 O.3     1  UNL1       -0.3112
      5 C          20.6054   70.4265   -4.2609 C.3     1  UNL1        0.1811
      6 C          17.1235   71.2444   -4.6401 C.3     1  UNL1        0.2383
      7 C          17.1796   69.7023   -4.7847 C.3     1  UNL1        0.1895
      8 O          15.9728   69.1015   -4.3110 O.3     1  UNL1       -0.3779
      9 C          18.3752   69.3334   -3.8727 C.3     1  UNL1        0.1713
     10 C          19.1772   70.6435   -3.7549 C.3     1  UNL1        0.1764
     11 O          18.5147   71.6253   -4.5677 O.3     1  UNL1       -0.3308
     12 O          17.9120   68.9128   -2.5885 O.3     1  UNL1       -0.3794
     13 H          15.9593   68.1373   -4.3811 H       1  UNL1        0.2106
     14 H          17.3523   68.1250   -2.6100 H       1  UNL1        0.2105
     15 N          16.4829   71.8492   -5.8101 N.ar    1  UNL1       -0.2551
     16 C          16.5983   71.2585   -7.0128 C.ar    1  UNL1        0.3323
     17 N          16.0202   71.7922   -8.1052 N.ar    1  UNL1       -0.2743
     18 C          15.3102   72.9346   -8.0077 C.ar    1  UNL1        0.2626
     19 C          15.1797   73.5665   -6.7476 C.ar    1  UNL1        0.0795
     20 C          15.7663   73.0070   -5.6685 C.ar    1  UNL1        0.0869
     21 O          17.2353   70.2280   -7.1156 O.2     1  UNL1       -0.2464
     22 O          14.7861   73.4185   -8.9954 O.2     1  UNL1       -0.2670
     23 H          16.1143   71.3540   -8.9650 H       1  UNL1        0.1734
     24 O          22.5996   71.1710   -0.9978 O.3     1  UNL1       -0.2703
     25 P          21.5072   71.3219    0.1756 P.3     1  UNL1        0.2208
     26 O          20.0589   71.5975   -0.4725 O.3     1  UNL1       -0.4371
     27 O          21.4619   70.0756    0.9711 O.2     1  UNL1       -0.5170
     28 O          21.9118   72.5540    1.1301 O.3     1  UNL1       -0.2865
     29 C          22.0748   72.4229    2.5434 C.3     1  UNL1        0.2611
     30 C          21.7458   73.7550    3.2217 C.3     1  UNL1        0.1582
     31 C          22.7318   74.8222    2.7368 C.3     1  UNL1        0.1625
     32 C          24.1595   74.3561    3.0349 C.3     1  UNL1        0.1686
     33 C          24.3955   73.0005    2.3636 C.3     1  UNL1        0.1760
     34 O          22.4783   76.0518    3.4202 O.3     1  UNL1       -0.3801
     35 O          24.3348   74.2273    4.4470 O.3     1  UNL1       -0.3794
     36 O          23.4265   72.0621    2.8351 O.3     1  UNL1       -0.3263
     37 H          23.0670   76.7739    3.1611 H       1  UNL1        0.2105
     38 H          25.2186   73.9339    4.7091 H       1  UNL1        0.2105
     39 C          19.4760   74.3814    3.8487 C.2     1  UNL1        0.2231
     40 C          18.0718   74.7943    3.4932 C.3     1  UNL1        0.0946
     41 N          20.3801   74.1564    2.8750 N.am    1  UNL1       -0.2994
     42 O          19.7938   74.2509    5.0124 O.2     1  UNL1       -0.2751
     43 H          20.1261   74.2596    1.9445 H       1  UNL1        0.1496
     44 C          25.7999   72.4997    2.7061 C.3     1  UNL1        0.1693
     45 O          26.6608   73.6162    2.9396 O.3     1  UNL1       -0.3794
     46 H          27.5697   73.3728    3.1625 H       1  UNL1        0.2105
@<TRIPOS>BOND
     1    29    30    1
     2    30    41    1
     3    30    31    1
     4    31    34    1
     5    31    32    1
     6    32    35    1
     7    32    33    1
     8    33    36    1
     9    33    44    1
    10    39    40    1
    11    39    42    2
    12    39    41   am
    13    41    43    1
    14    29    28    1
    15    34    37    1
    16    35    38    1
    17    29    36    1
    18    44    45    1
    19    45    46    1
    20    15     6    1
    21    15    16   ar
    22    16    21    2
    23    16    17   ar
    24    17    23    1
    25    17    18   ar
    26    18    19   ar
    27    19    20   ar
    28    15    20   ar
    29    18    22    2
    30     6     7    1
    31     6    11    1
    32     7     9    1
    33     7     8    1
    34     8    13    1
    35     9    10    1
    36     9    12    1
    37    10     5    1
    38    10    11    1
    39    12    14    1
    40     5     4    1
    41     4     1    1
    42     1     2    1
    43     1    24    1
    44     1     3    2
    45    24    25    1
    46    28    25    1
    47    25    26    1
    48    25    27    2
@<TRIPOS>MOLECULE
UD2
 46 48 0 0 0
SMALL
GASTEIGER

@<TRIPOS>ATOM
      1 P          20.1930   72.6553   -1.7985 P.3     1  UNL1        0.2189
      2 O          20.1600   73.9837   -2.7072 O.3     1  UNL1       -0.4371
      3 O          19.1541   72.7487   -0.7492 O.2     1  UNL1       -0.5170
      4 O          19.9090   71.3666   -2.7218 O.3     1  UNL1       -0.3112
      5 C          18.9452   70.3668   -2.3855 C.3     1  UNL1        0.1811
      6 C          17.1789   70.4790   -5.5167 C.3     1  UNL1        0.2383
      7 C          17.0257   69.0138   -5.0351 C.3     1  UNL1        0.1895
      8 O          15.7901   68.4553   -5.4857 O.3     1  UNL1       -0.3779
      9 C          17.0299   69.1754   -3.4952 C.3     1  UNL1        0.1713
     10 C          17.7024   70.5417   -3.2618 C.3     1  UNL1        0.1764
     11 O          18.0800   71.0580   -4.5480 O.3     1  UNL1       -0.3308
     12 O          15.6934   69.1826   -2.9908 O.3     1  UNL1       -0.3794
     13 H          15.6484   67.5396   -5.2102 H       1  UNL1        0.2106
     14 H          15.2029   68.3675   -3.1625 H       1  UNL1        0.2105
     15 N          17.7653   70.5225   -6.8580 N.ar    1  UNL1       -0.2551
     16 C          16.9662   70.4507   -7.9374 C.ar    1  UNL1        0.3323
     17 N          17.4778   70.4881   -9.1820 N.ar    1  UNL1       -0.2743
     18 C          18.8091   70.6009   -9.3654 C.ar    1  UNL1        0.2626
     19 C          19.6620   70.6785   -8.2381 C.ar    1  UNL1        0.0795
     20 C          19.1213   70.6428   -7.0020 C.ar    1  UNL1        0.0869
     21 O          15.7639   70.3490   -7.7870 O.2     1  UNL1       -0.2464
     22 O          19.2734   70.6352  -10.4913 O.2     1  UNL1       -0.2670
     23 H          16.8875   70.4339   -9.9492 H       1  UNL1        0.1734
     24 O          21.6413   72.5120   -1.1092 O.3     1  UNL1       -0.2703
     25 P          22.2561   71.5259    0.0056 P.3     1  UNL1        0.2208
     26 O          21.1313   70.4690    0.4655 O.3     1  UNL1       -0.4371
     27 O          23.4125   70.7989   -0.5623 O.2     1  UNL1       -0.5170
     28 O          22.7358   72.3877    1.2783 O.3     1  UNL1       -0.2865
     29 C          22.4234   73.7720    1.4436 C.3     1  UNL1        0.2611
     30 C          23.6822   74.6113    1.2113 C.3     1  UNL1        0.1582
     31 C          24.7325   74.2427    2.2636 C.3     1  UNL1        0.1625
     32 C          24.1397   74.4591    3.6587 C.3     1  UNL1        0.1686
     33 C          22.8631   73.6254    3.7966 C.3     1  UNL1        0.1760
     34 O          25.8841   75.0735    2.0999 O.3     1  UNL1       -0.3801
     35 O          23.8290   75.8423    3.8363 O.3     1  UNL1       -0.3794
     36 O          21.9408   73.9960    2.7699 O.3     1  UNL1       -0.3263
     37 H          26.5916   74.8938    2.7342 H       1  UNL1        0.2105
     38 H          23.4479   76.0527    4.7003 H       1  UNL1        0.2105
     39 C          24.2422   75.3163   -1.0529 C.2     1  UNL1        0.2231
     40 C          24.7876   75.0361   -2.4287 C.3     1  UNL1        0.0946
     41 N          24.2126   74.3379   -0.1267 N.am    1  UNL1       -0.2994
     42 O          23.8290   76.4235   -0.7780 O.2     1  UNL1       -0.2751
     43 H          24.5419   73.4523   -0.3464 H       1  UNL1        0.1496
     44 C          22.2321   73.8821    5.1664 C.3     1  UNL1        0.1693
     45 O          22.4053   72.7305    5.9948 O.3     1  UNL1       -0.3794
     46 H          22.0286   72.8224    6.8807 H       1  UNL1        0.2105
@<TRIPOS>BOND
     1    29    30    1
     2    30    41    1
     3    30    31    1
     4    31    34    1
     5    31    32    1
     6    32    35    1
     7    32    33    1
     8    33    36    1
     9    33    44    1
    10    39    40    1
    11    39    42    2
    12    39    41   am
    13    41    43    1
    14    29    28    1
    15    34    37    1
    16    35    38    1
    17    29    36    1
    18    44    45    1
    19    45    46    1
    20    15     6    1
    21    15    16   ar
    22    16    21    2
    23    16    17   ar
    24    17    23    1
    25    17    18   ar
    26    18    19   ar
    27    19    20   ar
    28    15    20   ar
    29    18    22    2
    30     6     7    1
    31     6    11    1
    32     7     9    1
    33     7     8    1
    34     8    13    1
    35     9    10    1
    36     9    12    1
    37    10     5    1
    38    10    11    1
    39    12    14    1
    40     5     4    1
    41     4     1    1
    42     1     2    1
    43     1    24    1
    44     1     3    2
    45    24    25    1
    46    28    25    1
    47    25    26    1
    48    25    27    2
@<TRIPOS>MOLECULE
UD2
 46 48 0 0 0
SMALL
GASTEIGER

@<TRIPOS>ATOM
      1 P          18.5540   73.3919   -1.3607 P.3     1  UNL1        0.2189
      2 O          19.2936   74.7872   -1.6729 O.3     1  UNL1       -0.4371
      3 O          17.0983   73.6225   -1.2320 O.2     1  UNL1       -0.5170
      4 O          18.8293   72.3576   -2.5641 O.3     1  UNL1       -0.3112
      5 C          18.3317   71.0183   -2.5669 C.3     1  UNL1        0.1811
      6 C          16.8810   70.5535   -5.8251 C.3     1  UNL1        0.2383
      7 C          16.9054   69.1341   -5.2033 C.3     1  UNL1        0.1895
      8 O          15.8182   68.3451   -5.6904 O.3     1  UNL1       -0.3779
      9 C          16.7356   69.4370   -3.6944 C.3     1  UNL1        0.1713
     10 C          17.1677   70.9092   -3.5550 C.3     1  UNL1        0.1764
     11 O          17.5858   71.3573   -4.8541 O.3     1  UNL1       -0.3308
     12 O          15.3709   69.2766   -3.3039 O.3     1  UNL1       -0.3794
     13 H          15.7907   67.4481   -5.3307 H       1  UNL1        0.2106
     14 H          15.0285   68.3810   -3.4266 H       1  UNL1        0.2105
     15 N          17.5814   70.5654   -7.1113 N.ar    1  UNL1       -0.2551
     16 C          16.8757   70.5143   -8.2550 C.ar    1  UNL1        0.3323
     17 N          17.4931   70.5236   -9.4512 N.ar    1  UNL1       -0.2743
     18 C          18.8385   70.5865   -9.5200 C.ar    1  UNL1        0.2626
     19 C          19.5939   70.6418   -8.3240 C.ar    1  UNL1        0.0795
     20 C          18.9484   70.6353   -7.1388 C.ar    1  UNL1        0.0869
     21 O          15.6620   70.4575   -8.2080 O.2     1  UNL1       -0.2464
     22 O          19.3986   70.5954  -10.6021 O.2     1  UNL1       -0.2670
     23 H          16.9692   70.4850  -10.2661 H       1  UNL1        0.1734
     24 O          19.1241   72.7780    0.0146 O.3     1  UNL1       -0.2703
     25 P          20.5517   72.1867    0.4679 P.3     1  UNL1        0.2208
     26 O          20.7530   72.4240    2.0481 O.3     1  UNL1       -0.4371
     27 O          20.6003   70.7371    0.1772 O.2     1  UNL1       -0.5170
     28 O          21.7244   72.9366   -0.3415 O.3     1  UNL1       -0.2865
     29 C          22.8310   72.2470   -0.9255 C.3     1  UNL1        0.2611
     30 C          24.0703   73.1445   -0.8878 C.3     1  UNL1        0.1582
     31 C          23.8077   74.3982   -1.7279 C.3     1  UNL1        0.1625
     32 C          23.4393   73.9769   -3.1531 C.3     1  UNL1        0.1686
     33 C          22.2241   73.0470   -3.1034 C.3     1  UNL1        0.1760
     34 O          24.9857   75.2074   -1.7585 O.3     1  UNL1       -0.3801
     35 O          24.5422   73.2909   -3.7485 O.3     1  UNL1       -0.3794
     36 O          22.5242   71.9170   -2.2817 O.3     1  UNL1       -0.3263
     37 H          24.8906   76.0203   -2.2737 H       1  UNL1        0.2105
     38 H          24.3785   72.9936   -4.6545 H       1  UNL1        0.2105
     39 C          24.7468   72.6045    1.3900 C.2     1  UNL1        0.2231
     40 C          25.0362   73.0028    2.8134 C.3     1  UNL1        0.0946
     41 N          24.3513   73.5328    0.4966 N.am    1  UNL1       -0.2994
     42 O          24.8696   71.4472    1.0468 O.2     1  UNL1       -0.2751
     43 H          24.2521   74.4580    0.7708 H       1  UNL1        0.1496
     44 C          21.8861   72.5737   -4.5184 C.3     1  UNL1        0.1693
     45 O          20.4802   72.7012   -4.7410 O.3     1  UNL1       -0.3794
     46 H          20.1935   72.4186   -5.6202 H       1  UNL1        0.2105
@<TRIPOS>BOND
     1    29    30    1
     2    30    41    1
     3    30    31    1
     4    31    34    1
     5    31    32    1
     6    32    35    1
     7    32    33    1
     8    33    36    1
     9    33    44    1
    10    39    40    1
    11    39    42    2
    12    39    41   am
    13    41    43    1
    14    29    28    1
    15    34    37    1
    16    35    38    1
    17    29    36    1
    18    44    45    1
    19    45    46    1
    20    15     6    1
    21    15    16   ar
    22    16    21    2
    23    16    17   ar
    24    17    23    1
    25    17    18   ar
    26    18    19   ar
    27    19    20   ar
    28    15    20   ar
    29    18    22    2
    30     6     7    1
    31     6    11    1
    32     7     9    1
    33     7     8    1
    34     8    13    1
    35     9    10    1
    36     9    12    1
    37    10     5    1
    38    10    11    1
    39    12    14    1
    40     5     4    1
    41     4     1    1
    42     1     2    1
    43     1    24    1
    44     1     3    2
    45    24    25    1
    46    28    25    1
    47    25    26    1
    48    25    27    2
@<TRIPOS>MOLECULE
UD2
 46 48 0 0 0
SMALL
GASTEIGER

@<TRIPOS>ATOM
      1 P          15.7733   70.4761   -2.7562 P.3     1  UNL1        0.2189
      2 O          15.7417   69.1067   -3.6017 O.3     1  UNL1       -0.4371
      3 O          15.4680   71.6153   -3.6494 O.2     1  UNL1       -0.5170
      4 O          14.6746   70.4063   -1.5807 O.3     1  UNL1       -0.3112
      5 C          14.8747   69.6700   -0.3727 C.3     1  UNL1        0.1811
      6 C          12.7644   67.2726    1.2813 C.3     1  UNL1        0.2383
      7 C          11.8198   68.4527    0.9391 C.3     1  UNL1        0.1895
      8 O          10.4889   67.9889    0.7036 O.3     1  UNL1       -0.3779
      9 C          12.4499   69.0070   -0.3621 C.3     1  UNL1        0.1713
     10 C          13.9008   68.4900   -0.3277 C.3     1  UNL1        0.1764
     11 O          14.0677   67.7651    0.9011 O.3     1  UNL1       -0.3308
     12 O          11.7633   68.4961   -1.5059 O.3     1  UNL1       -0.3794
     13 H           9.8603   68.6905    0.4863 H       1  UNL1        0.2106
     14 H          10.8294   68.7420   -1.5473 H       1  UNL1        0.2105
     15 N          12.7222   66.9771    2.7151 N.ar    1  UNL1       -0.2551
     16 C          12.5455   67.9773    3.5967 C.ar    1  UNL1        0.3323
     17 N          12.5029   67.7348    4.9202 N.ar    1  UNL1       -0.2743
     18 C          12.6361   66.4756    5.3841 C.ar    1  UNL1        0.2626
     19 C          12.8216   65.4130    4.4673 C.ar    1  UNL1        0.0795
     20 C          12.8561   65.6845    3.1457 C.ar    1  UNL1        0.0869
     21 O          12.4239   69.1176    3.1926 O.2     1  UNL1       -0.2464
     22 O          12.5973   66.2547    6.5817 O.2     1  UNL1       -0.2670
     23 H          12.3760   68.4677    5.5422 H       1  UNL1        0.1734
     24 O          17.2356   70.6758   -2.1118 O.3     1  UNL1       -0.2703
     25 P          18.7315   70.3541   -2.6133 P.3     1  UNL1        0.2208
     26 O          19.7645   70.5806   -1.3987 O.3     1  UNL1       -0.4371
     27 O          18.8078   68.9489   -3.0693 O.2     1  UNL1       -0.5170
     28 O          19.1117   71.3356   -3.8318 O.3     1  UNL1       -0.2865
     29 C          19.7866   70.8894   -5.0094 C.3     1  UNL1        0.2611
     30 C          20.4259   72.0866   -5.7170 C.3     1  UNL1        0.1582
     31 C          19.3251   73.0589   -6.1520 C.3     1  UNL1        0.1625
     32 C          18.3297   72.3181   -7.0491 C.3     1  UNL1        0.1686
     33 C          17.7711   71.1116   -6.2899 C.3     1  UNL1        0.1760
     34 O          19.9066   74.1441   -6.8783 O.3     1  UNL1       -0.3801
     35 O          18.9938   71.8724   -8.2330 O.3     1  UNL1       -0.3794
     36 O          18.8485   70.2637   -5.8873 O.3     1  UNL1       -0.3263
     37 H          19.2656   74.8003   -7.1844 H       1  UNL1        0.2105
     38 H          18.4219   71.3930   -8.8488 H       1  UNL1        0.2105
     39 C          22.6552   72.8496   -5.0959 C.2     1  UNL1        0.2231
     40 C          23.5992   73.5472   -4.1521 C.3     1  UNL1        0.0946
     41 N          21.3435   72.7652   -4.7983 N.am    1  UNL1       -0.2994
     42 O          23.0754   72.3630   -6.1249 O.2     1  UNL1       -0.2751
     43 H          21.0073   73.1531   -3.9752 H       1  UNL1        0.1496
     44 C          16.8207   70.3318   -7.2005 C.3     1  UNL1        0.1693
     45 O          15.9917   69.4800   -6.4071 O.3     1  UNL1       -0.3794
     46 H          15.3627   68.9540   -6.9197 H       1  UNL1        0.2105
@<TRIPOS>BOND
     1    29    30    1
     2    30    41    1
     3    30    31    1
     4    31    34    1
     5    31    32    1
     6    32    35    1
     7    32    33    1
     8    33    36    1
     9    33    44    1
    10    39    40    1
    11    39    42    2
    12    39    41   am
    13    41    43    1
    14    29    28    1
    15    34    37    1
    16    35    38    1
    17    29    36    1
    18    44    45    1
    19    45    46    1
    20    15     6    1
    21    15    16   ar
    22    16    21    2
    23    16    17   ar
    24    17    23    1
    25    17    18   ar
    26    18    19   ar
    27    19    20   ar
    28    15    20   ar
    29    18    22    2
    30     6     7    1
    31     6    11    1
    32     7     9    1
    33     7     8    1
    34     8    13    1
    35     9    10    1
    36     9    12    1
    37    10     5    1
    38    10    11    1
    39    12    14    1
    40     5     4    1
    41     4     1    1
    42     1     2    1
    43     1    24    1
    44     1     3    2
    45    24    25    1
    46    28    25    1
    47    25    26    1
    48    25    27    2
@<TRIPOS>MOLECULE
UD2
 46 48 0 0 0
SMALL
GASTEIGER

@<TRIPOS>ATOM
      1 P          20.3904   71.2665   -3.2871 P.3     1  UNL1        0.2189
      2 O          21.0085   70.4103   -4.5021 O.3     1  UNL1       -0.4371
      3 O          20.0983   72.6410   -3.7499 O.2     1  UNL1       -0.5170
      4 O          19.0299   70.5710   -2.7784 O.3     1  UNL1       -0.3112
      5 C          17.8519   71.3121   -2.4552 C.3     1  UNL1        0.1811
      6 C          16.6402   70.5313   -5.7504 C.3     1  UNL1        0.2383
      7 C          16.8093   69.1536   -5.0608 C.3     1  UNL1        0.1895
      8 O          15.8554   68.2134   -5.5588 O.3     1  UNL1       -0.3779
      9 C          16.5256   69.4954   -3.5775 C.3     1  UNL1        0.1713
     10 C          16.7630   71.0150   -3.4892 C.3     1  UNL1        0.1764
     11 O          17.1884   71.4578   -4.7878 O.3     1  UNL1       -0.3308
     12 O          15.1732   69.1797   -3.2427 O.3     1  UNL1       -0.3794
     13 H          15.9215   67.3361   -5.1581 H       1  UNL1        0.2106
     14 H          14.9518   68.2435   -3.3379 H       1  UNL1        0.2105
     15 N          17.3990   70.5781   -7.0022 N.ar    1  UNL1       -0.2551
     16 C          16.7452   70.6131   -8.1770 C.ar    1  UNL1        0.3323
     17 N          17.4170   70.6562   -9.3428 N.ar    1  UNL1       -0.2743
     18 C          18.7655   70.6670   -9.3490 C.ar    1  UNL1        0.2626
     19 C          19.4666   70.6316   -8.1197 C.ar    1  UNL1        0.0795
     20 C          18.7675   70.5929   -6.9659 C.ar    1  UNL1        0.0869
     21 O          15.5294   70.6041   -8.1864 O.2     1  UNL1       -0.2464
     22 O          19.3747   70.7065  -10.4035 O.2     1  UNL1       -0.2670
     23 H          16.9299   70.6798  -10.1808 H       1  UNL1        0.1734
     24 O          21.4498   71.3215   -2.0755 O.3     1  UNL1       -0.2703
     25 P          23.0023   71.7345   -1.9659 P.3     1  UNL1        0.2208
     26 O          23.4225   71.8339   -0.4144 O.3     1  UNL1       -0.4371
     27 O          23.8338   70.7114   -2.6369 O.2     1  UNL1       -0.5170
     28 O          23.2293   73.1615   -2.6763 O.3     1  UNL1       -0.2865
     29 C          24.2394   73.3891   -3.6608 C.3     1  UNL1        0.2611
     30 C          24.6189   74.8718   -3.6706 C.3     1  UNL1        0.1582
     31 C          23.3923   75.7014   -4.0624 C.3     1  UNL1        0.1625
     32 C          22.8804   75.2243   -5.4243 C.3     1  UNL1        0.1686
     33 C          22.5677   73.7275   -5.3468 C.3     1  UNL1        0.1760
     34 O          23.7561   77.0813   -4.1456 O.3     1  UNL1       -0.3801
     35 O          23.8816   75.4528   -6.4176 O.3     1  UNL1       -0.3794
     36 O          23.7418   73.0173   -4.9479 O.3     1  UNL1       -0.3263
     37 H          23.0256   77.6662   -4.3893 H       1  UNL1        0.2105
     38 H          23.6249   75.1729   -7.3074 H       1  UNL1        0.2105
     39 C          24.1916   75.7615   -1.4427 C.2     1  UNL1        0.2231
     40 C          24.6575   76.1703   -0.0700 C.3     1  UNL1        0.0946
     41 N          25.0730   75.2695   -2.3356 N.am    1  UNL1       -0.2994
     42 O          23.0221   75.8751   -1.7454 O.2     1  UNL1       -0.2751
     43 H          26.0082   75.1795   -2.0944 H       1  UNL1        0.1496
     44 C          22.1123   73.2302   -6.7200 C.3     1  UNL1        0.1693
     45 O          23.1622   72.4728   -7.3254 O.3     1  UNL1       -0.3794
     46 H          22.9429   72.1253   -8.2007 H       1  UNL1        0.2105
@<TRIPOS>BOND
     1    29    30    1
     2    30    41    1
     3    30    31    1
     4    31    34    1
     5    31    32    1
     6    32    35    1
     7    32    33    1
     8    33    36    1
     9    33    44    1
    10    39    40    1
    11    39    42    2
    12    39    41   am
    13    41    43    1
    14    29    28    1
    15    34    37    1
    16    35    38    1
    17    29    36    1
    18    44    45    1
    19    45    46    1
    20    15     6    1
    21    15    16   ar
    22    16    21    2
    23    16    17   ar
    24    17    23    1
    25    17    18   ar
    26    18    19   ar
    27    19    20   ar
    28    15    20   ar
    29    18    22    2
    30     6     7    1
    31     6    11    1
    32     7     9    1
    33     7     8    1
    34     8    13    1
    35     9    10    1
    36     9    12    1
    37    10     5    1
    38    10    11    1
    39    12    14    1
    40     5     4    1
    41     4     1    1
    42     1     2    1
    43     1    24    1
    44     1     3    2
    45    24    25    1
    46    28    25    1
    47    25    26    1
    48    25    27    2
@<TRIPOS>MOLECULE
UD2
 46 48 0 0 0
SMALL
GASTEIGER

@<TRIPOS>ATOM
      1 P          23.3221   72.0733   -3.4995 P.3     1  UNL1        0.2189
      2 O          24.2234   72.8535   -4.5813 O.3     1  UNL1       -0.4371
      3 O          24.0482   70.8754   -3.0235 O.2     1  UNL1       -0.5170
      4 O          23.0173   73.0467   -2.2532 O.3     1  UNL1       -0.3112
      5 C          22.0989   72.7111   -1.2114 C.3     1  UNL1        0.1811
      6 C          24.2466   71.8384    1.5386 C.3     1  UNL1        0.2383
      7 C          22.8473   72.0208    2.1796 C.3     1  UNL1        0.1895
      8 O          22.6910   71.1671    3.3147 O.3     1  UNL1       -0.3779
      9 C          21.9041   71.5895    1.0299 C.3     1  UNL1        0.1713
     10 C          22.7659   71.7353   -0.2388 C.3     1  UNL1        0.1764
     11 O          24.0441   72.2486    0.1688 O.3     1  UNL1       -0.3308
     12 O          21.4944   70.2320    1.2035 O.3     1  UNL1       -0.3794
     13 H          21.8316   71.2452    3.7506 H       1  UNL1        0.2106
     14 H          20.9981   70.0711    2.0173 H       1  UNL1        0.2105
     15 N          25.2313   72.7009    2.1956 N.ar    1  UNL1       -0.2551
     16 C          26.3663   72.1670    2.6808 C.ar    1  UNL1        0.3323
     17 N          27.2887   72.9357    3.2895 N.ar    1  UNL1       -0.2743
     18 C          27.0867   74.2626    3.4207 C.ar    1  UNL1        0.2626
     19 C          25.8968   74.8381    2.9136 C.ar    1  UNL1        0.0795
     20 C          24.9913   74.0442    2.3043 C.ar    1  UNL1        0.0869
     21 O          26.5618   70.9721    2.5694 O.2     1  UNL1       -0.2464
     22 O          27.9209   74.9596    3.9710 O.2     1  UNL1       -0.2670
     23 H          28.1010   72.5344    3.6347 H       1  UNL1        0.1734
     24 O          21.9338   71.6243   -4.1809 O.3     1  UNL1       -0.2703
     25 P          21.1073   72.1252   -5.4689 P.3     1  UNL1        0.2208
     26 O          20.9063   73.7212   -5.3895 O.3     1  UNL1       -0.4371
     27 O          21.8550   71.7834   -6.6987 O.2     1  UNL1       -0.5170
     28 O          19.6683   71.4034   -5.4970 O.3     1  UNL1       -0.2865
     29 C          18.4906   72.0346   -6.0029 C.3     1  UNL1        0.2611
     30 C          17.2566   71.2457   -5.5582 C.3     1  UNL1        0.1582
     31 C          17.3209   69.8357   -6.1534 C.3     1  UNL1        0.1625
     32 C          17.4245   69.9408   -7.6774 C.3     1  UNL1        0.1686
     33 C          18.6524   70.7801   -8.0404 C.3     1  UNL1        0.1760
     34 O          16.1366   69.1157   -5.8037 O.3     1  UNL1       -0.3801
     35 O          16.2482   70.5658   -8.1942 O.3     1  UNL1       -0.3794
     36 O          18.5443   72.0679   -7.4306 O.3     1  UNL1       -0.3263
     37 H          16.1100   68.2123   -6.1477 H       1  UNL1        0.2105
     38 H          16.2457   70.6660   -9.1564 H       1  UNL1        0.2105
     39 C          17.7972   70.1063   -3.4732 C.2     1  UNL1        0.2231
     40 C          17.7725   70.0168   -1.9699 C.3     1  UNL1        0.0946
     41 N          17.2319   71.1593   -4.0959 N.am    1  UNL1       -0.2994
     42 O          18.3263   69.2299   -4.1246 O.2     1  UNL1       -0.2751
     43 H          16.8080   71.8597   -3.5755 H       1  UNL1        0.1496
     44 C          18.7294   70.9399   -9.5600 C.3     1  UNL1        0.1693
     45 O          17.9618   69.9107  -10.1875 O.3     1  UNL1       -0.3794
     46 H          17.9655   69.9500  -11.1536 H       1  UNL1        0.2105
@<TRIPOS>BOND
     1    29    30    1
     2    30    41    1
     3    30    31    1
     4    31    34    1
     5    31    32    1
     6    32    35    1
     7    32    33    1
     8    33    36    1
     9    33    44    1
    10    39    40    1
    11    39    42    2
    12    39    41   am
    13    41    43    1
    14    29    28    1
    15    34    37    1
    16    35    38    1
    17    29    36    1
    18    44    45    1
    19    45    46    1
    20    15     6    1
    21    15    16   ar
    22    16    21    2
    23    16    17   ar
    24    17    23    1
    25    17    18   ar
    26    18    19   ar
    27    19    20   ar
    28    15    20   ar
    29    18    22    2
    30     6     7    1
    31     6    11    1
    32     7     9    1
    33     7     8    1
    34     8    13    1
    35     9    10    1
    36     9    12    1
    37    10     5    1
    38    10    11    1
    39    12    14    1
    40     5     4    1
    41     4     1    1
    42     1     2    1
    43     1    24    1
    44     1     3    2
    45    24    25    1
    46    28    25    1
    47    25    26    1
    48    25    27    2
@<TRIPOS>MOLECULE
UD2
 46 48 0 0 0
SMALL
GASTEIGER

@<TRIPOS>ATOM
      1 P          22.6325   73.0583   -4.3864 P.3     1  UNL1        0.2189
      2 O          22.3750   74.2441   -5.4442 O.3     1  UNL1       -0.4371
      3 O          24.0119   72.5470   -4.5438 O.2     1  UNL1       -0.5170
      4 O          22.4365   73.6219   -2.8905 O.3     1  UNL1       -0.3112
      5 C          21.8335   74.8864   -2.6092 C.3     1  UNL1        0.1811
      6 C          22.3651   74.0304    0.8435 C.3     1  UNL1        0.2383
      7 C          23.3248   75.2195    0.5846 C.3     1  UNL1        0.1895
      8 O          23.5086   75.9943    1.7710 O.3     1  UNL1       -0.3779
      9 C          22.5580   76.0283   -0.4902 C.3     1  UNL1        0.1713
     10 C          21.5814   75.0073   -1.1043 C.3     1  UNL1        0.1764
     11 O          21.8250   73.7442   -0.4649 O.3     1  UNL1       -0.3308
     12 O          21.8410   77.1062    0.1139 O.3     1  UNL1       -0.3794
     13 H          24.1017   76.7497    1.6599 H       1  UNL1        0.2106
     14 H          22.4035   77.7488    0.5668 H       1  UNL1        0.2105
     15 N          23.1023   72.8758    1.3616 N.ar    1  UNL1       -0.2551
     16 C          22.7974   72.3798    2.5740 C.ar    1  UNL1        0.3323
     17 N          23.4586   71.3197    3.0751 N.ar    1  UNL1       -0.2743
     18 C          24.4425   70.7345    2.3622 C.ar    1  UNL1        0.2626
     19 C          24.7732   71.2456    1.0841 C.ar    1  UNL1        0.0795
     20 C          24.0909   72.3068    0.6047 C.ar    1  UNL1        0.0869
     21 O          21.9124   72.8973    3.2278 O.2     1  UNL1       -0.2464
     22 O          25.0414   69.7747    2.8145 O.2     1  UNL1       -0.2670
     23 H          23.2269   70.9754    3.9514 H       1  UNL1        0.1734
     24 O          21.5839   71.8652   -4.6513 O.3     1  UNL1       -0.2703
     25 P          20.1604   71.4659   -4.0133 P.3     1  UNL1        0.2208
     26 O          20.3751   70.3295   -2.8924 O.3     1  UNL1       -0.4371
     27 O          19.5451   72.6597   -3.3931 O.2     1  UNL1       -0.5170
     28 O          19.1927   70.9028   -5.1705 O.3     1  UNL1       -0.2865
     29 C          18.1622   71.6873   -5.7737 C.3     1  UNL1        0.2611
     30 C          16.8173   70.9741   -5.6146 C.3     1  UNL1        0.1582
     31 C          16.8709   69.6317   -6.3505 C.3     1  UNL1        0.1625
     32 C          17.2258   69.8805   -7.8190 C.3     1  UNL1        0.1686
     33 C          18.5554   70.6361   -7.8931 C.3     1  UNL1        0.1760
     34 O          15.5953   68.9917   -6.2693 O.3     1  UNL1       -0.3801
     35 O          16.1980   70.6600   -8.4333 O.3     1  UNL1       -0.3794
     36 O          18.4472   71.8599   -7.1634 O.3     1  UNL1       -0.3263
     37 H          15.5570   68.1340   -6.7144 H       1  UNL1        0.2105
     38 H          16.3578   70.8569   -9.3670 H       1  UNL1        0.2105
     39 C          16.8889   69.5672   -3.6263 C.2     1  UNL1        0.2231
     40 C          16.6161   69.3286   -2.1644 C.3     1  UNL1        0.0946
     41 N          16.5514   70.7426   -4.1925 N.am    1  UNL1       -0.2994
     42 O          17.4127   68.7009   -4.2951 O.2     1  UNL1       -0.2751
     43 H          16.1317   71.4352   -3.6584 H       1  UNL1        0.1496
     44 C          18.8875   70.9412   -9.3550 C.3     1  UNL1        0.1693
     45 O          18.1342   70.0749  -10.2062 O.3     1  UNL1       -0.3794
     46 H          18.2949   70.2125  -11.1497 H       1  UNL1        0.2105
@<TRIPOS>BOND
     1    29    30    1
     2    30    41    1
     3    30    31    1
     4    31    34    1
     5    31    32    1
     6    32    35    1
     7    32    33    1
     8    33    36    1
     9    33    44    1
    10    39    40    1
    11    39    42    2
    12    39    41   am
    13    41    43    1
    14    29    28    1
    15    34    37    1
    16    35    38    1
    17    29    36    1
    18    44    45    1
    19    45    46    1
    20    15     6    1
    21    15    16   ar
    22    16    21    2
    23    16    17   ar
    24    17    23    1
    25    17    18   ar
    26    18    19   ar
    27    19    20   ar
    28    15    20   ar
    29    18    22    2
    30     6     7    1
    31     6    11    1
    32     7     9    1
    33     7     8    1
    34     8    13    1
    35     9    10    1
    36     9    12    1
    37    10     5    1
    38    10    11    1
    39    12    14    1
    40     5     4    1
    41     4     1    1
    42     1     2    1
    43     1    24    1
    44     1     3    2
    45    24    25    1
    46    28    25    1
    47    25    26    1
    48    25    27    2
@<TRIPOS>MOLECULE
UD2
 46 48 0 0 0
SMALL
GASTEIGER

@<TRIPOS>ATOM
      1 P          22.7720   72.8556   -4.6035 P.3     1  UNL1        0.2189
      2 O          22.6701   74.2384   -5.4213 O.3     1  UNL1       -0.4371
      3 O          24.1802   72.6097   -4.2225 O.2     1  UNL1       -0.5170
      4 O          21.8652   72.9495   -3.2758 O.3     1  UNL1       -0.3112
      5 C          20.8413   73.9306   -3.1018 C.3     1  UNL1        0.1811
      6 C          21.8045   73.7473    0.3588 C.3     1  UNL1        0.2383
      7 C          22.6346   74.9236   -0.2150 C.3     1  UNL1        0.1895
      8 O          22.8827   75.9101    0.7885 O.3     1  UNL1       -0.3779
      9 C          21.6961   75.4781   -1.3146 C.3     1  UNL1        0.1713
     10 C          20.7427   74.3074   -1.6215 C.3     1  UNL1        0.1764
     11 O          21.1518   73.1976   -0.8063 O.3     1  UNL1       -0.3308
     12 O          20.9652   76.6039   -0.8256 O.3     1  UNL1       -0.3794
     13 H          23.3992   76.6661    0.4781 H       1  UNL1        0.2106
     14 H          21.5206   77.3497   -0.5613 H       1  UNL1        0.2105
     15 N          22.6814   72.7507    0.9776 N.ar    1  UNL1       -0.2551
     16 C          23.5799   72.0934    0.2231 C.ar    1  UNL1        0.3323
     17 N          24.3984   71.1723    0.7653 N.ar    1  UNL1       -0.2743
     18 C          24.3295   70.8949    2.0832 C.ar    1  UNL1        0.2626
     19 C          23.3890   71.5801    2.8895 C.ar    1  UNL1        0.0795
     20 C          22.5839   72.5016    2.3202 C.ar    1  UNL1        0.0869
     21 O          23.6533   72.3335   -0.9666 O.2     1  UNL1       -0.2464
     22 O          25.0699   70.0618    2.5752 O.2     1  UNL1       -0.2670
     23 H          25.0397   70.7067    0.2066 H       1  UNL1        0.1734
     24 O          22.2463   71.6456   -5.5270 O.3     1  UNL1       -0.2703
     25 P          21.0822   71.5060   -6.6307 P.3     1  UNL1        0.2208
     26 O          21.2787   72.6343   -7.7630 O.3     1  UNL1       -0.4371
     27 O          21.1506   70.1659   -7.2535 O.2     1  UNL1       -0.5170
     28 O          19.6477   71.6976   -5.9248 O.3     1  UNL1       -0.2865
     29 C          18.9711   70.6432   -5.2379 C.3     1  UNL1        0.2611
     30 C          17.7203   70.2415   -6.0231 C.3     1  UNL1        0.1582
     31 C          16.7663   71.4379   -6.0939 C.3     1  UNL1        0.1625
     32 C          16.4357   71.8984   -4.6715 C.3     1  UNL1        0.1686
     33 C          17.7365   72.2364   -3.9382 C.3     1  UNL1        0.1760
     34 O          15.5635   71.0503   -6.7620 O.3     1  UNL1       -0.3801
     35 O          15.7533   70.8525   -3.9773 O.3     1  UNL1       -0.3794
     36 O          18.5911   71.0911   -3.9351 O.3     1  UNL1       -0.3263
     37 H          14.9128   71.7610   -6.8434 H       1  UNL1        0.2105
     38 H          15.5131   71.0753   -3.0670 H       1  UNL1        0.2105
     39 C          18.0615   70.7348   -8.3849 C.2     1  UNL1        0.2231
     40 C          18.4541   70.3218   -9.7791 C.3     1  UNL1        0.0946
     41 N          18.1021   69.8389   -7.3791 N.am    1  UNL1       -0.2994
     42 O          17.7083   71.8749   -8.1666 O.2     1  UNL1       -0.2751
     43 H          18.3835   68.9270   -7.5533 H       1  UNL1        0.1496
     44 C          17.4191   72.6403   -2.4972 C.3     1  UNL1        0.1693
     45 O          16.1494   73.2948   -2.4538 O.3     1  UNL1       -0.3794
     46 H          15.8830   73.5794   -1.5689 H       1  UNL1        0.2105
@<TRIPOS>BOND
     1    29    30    1
     2    30    41    1
     3    30    31    1
     4    31    34    1
     5    31    32    1
     6    32    35    1
     7    32    33    1
     8    33    36    1
     9    33    44    1
    10    39    40    1
    11    39    42    2
    12    39    41   am
    13    41    43    1
    14    29    28    1
    15    34    37    1
    16    35    38    1
    17    29    36    1
    18    44    45    1
    19    45    46    1
    20    15     6    1
    21    15    16   ar
    22    16    21    2
    23    16    17   ar
    24    17    23    1
    25    17    18   ar
    26    18    19   ar
    27    19    20   ar
    28    15    20   ar
    29    18    22    2
    30     6     7    1
    31     6    11    1
    32     7     9    1
    33     7     8    1
    34     8    13    1
    35     9    10    1
    36     9    12    1
    37    10     5    1
    38    10    11    1
    39    12    14    1
    40     5     4    1
    41     4     1    1
    42     1     2    1
    43     1    24    1
    44     1     3    2
    45    24    25    1
    46    28    25    1
    47    25    26    1
    48    25    27    2
@<TRIPOS>MOLECULE
UD2
 46 48 0 0 0
SMALL
GASTEIGER

@<TRIPOS>ATOM
      1 P          21.9780   72.0746   -2.3443 P.3     1  UNL1        0.2189
      2 O          23.2755   73.0026   -2.1282 O.3     1  UNL1       -0.4371
      3 O          22.3292   70.6633   -2.0724 O.2     1  UNL1       -0.5170
      4 O          20.8111   72.5409   -1.3371 O.3     1  UNL1       -0.3112
      5 C          21.0650   73.2893   -0.1467 C.3     1  UNL1        0.1811
      6 C          23.1126   71.8152    2.4167 C.3     1  UNL1        0.2383
      7 C          22.3577   72.9636    3.1333 C.3     1  UNL1        0.1895
      8 O          22.1322   72.6459    4.5080 O.3     1  UNL1       -0.3779
      9 C          21.0221   73.0124    2.3514 C.3     1  UNL1        0.1713
     10 C          21.3457   72.3271    1.0101 C.3     1  UNL1        0.1764
     11 O          22.7399   71.9819    1.0314 O.3     1  UNL1       -0.3308
     12 O          20.0077   72.2896    3.0511 O.3     1  UNL1       -0.3794
     13 H          21.6635   73.3341    4.9993 H       1  UNL1        0.2106
     14 H          19.8056   72.6431    3.9278 H       1  UNL1        0.2105
     15 N          24.5598   71.9661    2.5838 N.ar    1  UNL1       -0.2551
     16 C          25.3648   70.9022    2.4138 C.ar    1  UNL1        0.3323
     17 N          26.6983   71.0119    2.5612 N.ar    1  UNL1       -0.2743
     18 C          27.2503   72.1998    2.8821 C.ar    1  UNL1        0.2626
     19 C          26.4149   73.3283    3.0630 C.ar    1  UNL1        0.0795
     20 C          25.0816   73.1903    2.9047 C.ar    1  UNL1        0.0869
     21 O          24.8809   69.8250    2.1241 O.2     1  UNL1       -0.2464
     22 O          28.4572   72.3005    3.0154 O.2     1  UNL1       -0.2670
     23 H          27.2642   70.2345    2.4362 H       1  UNL1        0.1734
     24 O          21.4631   72.2167   -3.8635 O.3     1  UNL1       -0.2703
     25 P          20.2398   72.9979   -4.5608 P.3     1  UNL1        0.2208
     26 O          19.9425   74.3589   -3.7526 O.3     1  UNL1       -0.4371
     27 O          20.5950   73.3231   -5.9595 O.2     1  UNL1       -0.5170
     28 O          18.9276   72.0650   -4.5428 O.3     1  UNL1       -0.2865
     29 C          18.9776   70.6477   -4.7161 C.3     1  UNL1        0.2611
     30 C          18.1759   70.2561   -5.9597 C.3     1  UNL1        0.1582
     31 C          16.7093   70.6482   -5.7556 C.3     1  UNL1        0.1625
     32 C          16.1824   69.9700   -4.4880 C.3     1  UNL1        0.1686
     33 C          17.0611   70.3728   -3.3008 C.3     1  UNL1        0.1760
     34 O          15.9397   70.2200   -6.8815 O.3     1  UNL1       -0.3801
     35 O          16.2228   68.5514   -4.6532 O.3     1  UNL1       -0.3794
     36 O          18.4166   70.0078   -3.5680 O.3     1  UNL1       -0.3263
     37 H          14.9993   70.4368   -6.8199 H       1  UNL1        0.2105
     38 H          15.9032   68.0561   -3.8861 H       1  UNL1        0.2105
     39 C          18.7898   70.3267   -8.3168 C.2     1  UNL1        0.2231
     40 C          19.3408   71.0475   -9.5191 C.3     1  UNL1        0.0946
     41 N          18.7123   70.9578   -7.1287 N.am    1  UNL1       -0.2994
     42 O          18.4153   69.1770   -8.4176 O.2     1  UNL1       -0.2751
     43 H          19.0125   71.8767   -7.0474 H       1  UNL1        0.1496
     44 C          16.5774   69.6523   -2.0409 C.3     1  UNL1        0.1693
     45 O          17.1086   68.3258   -2.0163 O.3     1  UNL1       -0.3794
     46 H          16.8425   67.8092   -1.2434 H       1  UNL1        0.2105
@<TRIPOS>BOND
     1    29    30    1
     2    30    41    1
     3    30    31    1
     4    31    34    1
     5    31    32    1
     6    32    35    1
     7    32    33    1
     8    33    36    1
     9    33    44    1
    10    39    40    1
    11    39    42    2
    12    39    41   am
    13    41    43    1
    14    29    28    1
    15    34    37    1
    16    35    38    1
    17    29    36    1
    18    44    45    1
    19    45    46    1
    20    15     6    1
    21    15    16   ar
    22    16    21    2
    23    16    17   ar
    24    17    23    1
    25    17    18   ar
    26    18    19   ar
    27    19    20   ar
    28    15    20   ar
    29    18    22    2
    30     6     7    1
    31     6    11    1
    32     7     9    1
    33     7     8    1
    34     8    13    1
    35     9    10    1
    36     9    12    1
    37    10     5    1
    38    10    11    1
    39    12    14    1
    40     5     4    1
    41     4     1    1
    42     1     2    1
    43     1    24    1
    44     1     3    2
    45    24    25    1
    46    28    25    1
    47    25    26    1
    48    25    27    2
@<TRIPOS>MOLECULE
UD2
 46 48 0 0 0
SMALL
GASTEIGER

@<TRIPOS>ATOM
      1 P          20.9226   72.1776   -3.3454 P.3     1  UNL1        0.2189
      2 O          21.4378   71.6627   -4.7809 O.3     1  UNL1       -0.4371
      3 O          20.3669   71.0385   -2.5823 O.2     1  UNL1       -0.5170
      4 O          22.1556   72.8186   -2.5312 O.3     1  UNL1       -0.3112
      5 C          21.9798   73.6540   -1.3856 C.3     1  UNL1        0.1811
      6 C          23.2333   72.1884    1.6505 C.3     1  UNL1        0.2383
      7 C          22.5291   73.4909    2.1083 C.3     1  UNL1        0.1895
      8 O          21.9893   73.3438    3.4231 O.3     1  UNL1       -0.3779
      9 C          21.3987   73.6353    1.0601 C.3     1  UNL1        0.1713
     10 C          21.8783   72.7834   -0.1307 C.3     1  UNL1        0.1764
     11 O          23.1734   72.2634    0.2095 O.3     1  UNL1       -0.3308
     12 O          20.1695   73.1241    1.5783 O.3     1  UNL1       -0.3794
     13 H          21.5391   74.1327    3.7543 H       1  UNL1        0.2106
     14 H          19.8511   73.5863    2.3653 H       1  UNL1        0.2105
     15 N          24.6241   72.1654    2.1089 N.ar    1  UNL1       -0.2551
     16 C          25.2859   70.9962    2.1714 C.ar    1  UNL1        0.3323
     17 N          26.5646   70.9455    2.5892 N.ar    1  UNL1       -0.2743
     18 C          27.2055   72.0752    2.9520 C.ar    1  UNL1        0.2626
     19 C          26.5212   73.3130    2.8901 C.ar    1  UNL1        0.0795
     20 C          25.2410   73.3349    2.4635 C.ar    1  UNL1        0.0869
     21 O          24.7206   69.9697    1.8472 O.2     1  UNL1       -0.2464
     22 O          28.3629   72.0306    3.3299 O.2     1  UNL1       -0.2670
     23 H          27.0267   70.0940    2.6294 H       1  UNL1        0.1734
     24 O          19.7800   73.2932   -3.5535 O.3     1  UNL1       -0.2703
     25 P          18.2125   73.2335   -3.9169 P.3     1  UNL1        0.2208
     26 O          17.4270   72.4187   -2.7711 O.3     1  UNL1       -0.4371
     27 O          17.6728   74.6082   -4.0018 O.2     1  UNL1       -0.5170
     28 O          18.0178   72.4917   -5.3328 O.3     1  UNL1       -0.2865
     29 C          18.4082   73.0749   -6.5773 C.3     1  UNL1        0.2611
     30 C          17.1893   73.1803   -7.4971 C.3     1  UNL1        0.1582
     31 C          16.6576   71.7738   -7.7890 C.3     1  UNL1        0.1625
     32 C          17.7792   70.9335   -8.4057 C.3     1  UNL1        0.1686
     33 C          18.9756   70.9146   -7.4506 C.3     1  UNL1        0.1760
     34 O          15.5643   71.8577   -8.7060 O.3     1  UNL1       -0.3801
     35 O          18.1732   71.5053   -9.6543 O.3     1  UNL1       -0.3794
     36 O          19.4013   72.2548   -7.1964 O.3     1  UNL1       -0.3263
     37 H          15.1772   71.0017   -8.9353 H       1  UNL1        0.2105
     38 H          18.8827   71.0234  -10.1020 H       1  UNL1        0.2105
     39 C          15.2065   73.3588   -6.0920 C.2     1  UNL1        0.2231
     40 C          14.1341   74.1711   -5.4146 C.3     1  UNL1        0.0946
     41 N          16.1464   73.9712   -6.8387 N.am    1  UNL1       -0.2994
     42 O          15.2244   72.1521   -5.9658 O.2     1  UNL1       -0.2751
     43 H          16.1319   74.9357   -6.9407 H       1  UNL1        0.1496
     44 C          20.1226   70.1265   -8.0858 C.3     1  UNL1        0.1693
     45 O          21.3707   70.7072   -7.7017 O.3     1  UNL1       -0.3794
     46 H          22.1439   70.2576   -8.0690 H       1  UNL1        0.2105
@<TRIPOS>BOND
     1    29    30    1
     2    30    41    1
     3    30    31    1
     4    31    34    1
     5    31    32    1
     6    32    35    1
     7    32    33    1
     8    33    36    1
     9    33    44    1
    10    39    40    1
    11    39    42    2
    12    39    41   am
    13    41    43    1
    14    29    28    1
    15    34    37    1
    16    35    38    1
    17    29    36    1
    18    44    45    1
    19    45    46    1
    20    15     6    1
    21    15    16   ar
    22    16    21    2
    23    16    17   ar
    24    17    23    1
    25    17    18   ar
    26    18    19   ar
    27    19    20   ar
    28    15    20   ar
    29    18    22    2
    30     6     7    1
    31     6    11    1
    32     7     9    1
    33     7     8    1
    34     8    13    1
    35     9    10    1
    36     9    12    1
    37    10     5    1
    38    10    11    1
    39    12    14    1
    40     5     4    1
    41     4     1    1
    42     1     2    1
    43     1    24    1
    44     1     3    2
    45    24    25    1
    46    28    25    1
    47    25    26    1
    48    25    27    2
@<TRIPOS>MOLECULE
UD2
 46 48 0 0 0
SMALL
GASTEIGER

@<TRIPOS>ATOM
      1 P          19.8005   73.3898   -2.9946 P.3     1  UNL1        0.2189
      2 O          21.0644   73.3319   -3.9899 O.3     1  UNL1       -0.4371
      3 O          19.0965   74.6798   -3.1649 O.2     1  UNL1       -0.5170
      4 O          18.7937   72.1798   -3.3350 O.3     1  UNL1       -0.3112
      5 C          17.4969   72.0592   -2.7476 C.3     1  UNL1        0.1811
      6 C          16.6628   70.4772   -5.8682 C.3     1  UNL1        0.2383
      7 C          17.1447   69.3175   -4.9599 C.3     1  UNL1        0.1895
      8 O          16.4810   68.0974   -5.2955 O.3     1  UNL1       -0.3779
      9 C          16.7211   69.8081   -3.5538 C.3     1  UNL1        0.1713
     10 C          16.5633   71.3318   -3.7183 C.3     1  UNL1        0.1764
     11 O          16.9180   71.6549   -5.0722 O.3     1  UNL1       -0.3308
     12 O          15.4791   69.2146   -3.1715 O.3     1  UNL1       -0.3794
     13 H          16.7493   67.3419   -4.7550 H       1  UNL1        0.2106
     14 H          15.5055   68.2502   -3.1103 H       1  UNL1        0.2105
     15 N          17.4378   70.5157   -7.1103 N.ar    1  UNL1       -0.2551
     16 C          16.7998   70.5935   -8.2917 C.ar    1  UNL1        0.3323
     17 N          17.4866   70.6303   -9.4490 N.ar    1  UNL1       -0.2743
     18 C          18.8346   70.5911   -9.4397 C.ar    1  UNL1        0.2626
     19 C          19.5191   70.5103   -8.2032 C.ar    1  UNL1        0.0795
     20 C          18.8053   70.4792   -7.0583 C.ar    1  UNL1        0.0869
     21 O          15.5847   70.6298   -8.3152 O.2     1  UNL1       -0.2464
     22 O          19.4574   70.6247  -10.4864 O.2     1  UNL1       -0.2670
     23 H          17.0108   70.6852  -10.2920 H       1  UNL1        0.1734
     24 O          20.3087   73.2522   -1.4727 O.3     1  UNL1       -0.2703
     25 P          20.2918   74.2327   -0.1955 P.3     1  UNL1        0.2208
     26 O          20.9253   75.6560   -0.6038 O.3     1  UNL1       -0.4371
     27 O          18.8976   74.4264    0.2596 O.2     1  UNL1       -0.5170
     28 O          21.1592   73.5799    0.9936 O.3     1  UNL1       -0.2865
     29 C          22.4019   74.1252    1.4405 C.3     1  UNL1        0.2611
     30 C          23.4912   73.0535    1.3534 C.3     1  UNL1        0.1582
     31 C          23.1300   71.8935    2.2863 C.3     1  UNL1        0.1625
     32 C          22.9576   72.4317    3.7093 C.3     1  UNL1        0.1686
     33 C          21.8885   73.5275    3.7056 C.3     1  UNL1        0.1760
     34 O          24.1778   70.9214    2.2669 O.3     1  UNL1       -0.3801
     35 O          24.1971   72.9744    4.1681 O.3     1  UNL1       -0.3794
     36 O          22.2708   74.5606    2.7953 O.3     1  UNL1       -0.3263
     37 H          24.0150   70.1568    2.8361 H       1  UNL1        0.2105
     38 H          24.1613   73.3352    5.0651 H       1  UNL1        0.2105
     39 C          22.9071   71.4594   -0.3946 C.2     1  UNL1        0.2231
     40 C          23.0037   70.9546   -1.8103 C.3     1  UNL1        0.0946
     41 N          23.5859   72.5630   -0.0239 N.am    1  UNL1       -0.2994
     42 O          22.2177   70.8724    0.4132 O.2     1  UNL1       -0.2751
     43 H          24.1380   73.0320   -0.6691 H       1  UNL1        0.1496
     44 C          21.7527   74.1119    5.1129 C.3     1  UNL1        0.1693
     45 O          22.0225   73.0948    6.0799 O.3     1  UNL1       -0.3794
     46 H          21.9545   73.3950    6.9966 H       1  UNL1        0.2105
@<TRIPOS>BOND
     1    29    30    1
     2    30    41    1
     3    30    31    1
     4    31    34    1
     5    31    32    1
     6    32    35    1
     7    32    33    1
     8    33    36    1
     9    33    44    1
    10    39    40    1
    11    39    42    2
    12    39    41   am
    13    41    43    1
    14    29    28    1
    15    34    37    1
    16    35    38    1
    17    29    36    1
    18    44    45    1
    19    45    46    1
    20    15     6    1
    21    15    16   ar
    22    16    21    2
    23    16    17   ar
    24    17    23    1
    25    17    18   ar
    26    18    19   ar
    27    19    20   ar
    28    15    20   ar
    29    18    22    2
    30     6     7    1
    31     6    11    1
    32     7     9    1
    33     7     8    1
    34     8    13    1
    35     9    10    1
    36     9    12    1
    37    10     5    1
    38    10    11    1
    39    12    14    1
    40     5     4    1
    41     4     1    1
    42     1     2    1
    43     1    24    1
    44     1     3    2
    45    24    25    1
    46    28    25    1
    47    25    26    1
    48    25    27    2
@<TRIPOS>MOLECULE
UD2
 46 48 0 0 0
SMALL
GASTEIGER

@<TRIPOS>ATOM
      1 P          20.6653   71.8588   -3.2133 P.3     1  UNL1        0.2189
      2 O          21.6691   71.2838   -4.3328 O.3     1  UNL1       -0.4371
      3 O          20.2644   73.2373   -3.5705 O.2     1  UNL1       -0.5170
      4 O          19.3572   70.9227   -3.1340 O.3     1  UNL1       -0.3112
      5 C          18.1219   71.3602   -2.5646 C.3     1  UNL1        0.1811
      6 C          16.7551   70.5919   -5.8016 C.3     1  UNL1        0.2383
      7 C          16.8933   69.2166   -5.1006 C.3     1  UNL1        0.1895
      8 O          15.8833   68.3112   -5.5500 O.3     1  UNL1       -0.3779
      9 C          16.6803   69.5872   -3.6124 C.3     1  UNL1        0.1713
     10 C          16.9834   71.0966   -3.5532 C.3     1  UNL1        0.1764
     11 O          17.3771   71.5060   -4.8726 O.3     1  UNL1       -0.3308
     12 O          15.3297   69.3321   -3.2231 O.3     1  UNL1       -0.3794
     13 H          15.9283   67.4366   -5.1406 H       1  UNL1        0.2106
     14 H          15.0666   68.4049   -3.2975 H       1  UNL1        0.2105
     15 N          17.4672   70.5925   -7.0814 N.ar    1  UNL1       -0.2551
     16 C          16.7709   70.5583   -8.2315 C.ar    1  UNL1        0.3323
     17 N          17.3992   70.5577   -9.4221 N.ar    1  UNL1       -0.2743
     18 C          18.7461   70.5935   -9.4787 C.ar    1  UNL1        0.2626
     19 C          19.4916   70.6307   -8.2759 C.ar    1  UNL1        0.0795
     20 C          18.8354   70.6346   -7.0965 C.ar    1  UNL1        0.0869
     21 O          15.5559   70.5261   -8.1956 O.2     1  UNL1       -0.2464
     22 O          19.3160   70.5934  -10.5556 O.2     1  UNL1       -0.2670
     23 H          16.8819   70.5316  -10.2418 H       1  UNL1        0.1734
     24 O          21.4050   71.8682   -1.7829 O.3     1  UNL1       -0.2703
     25 P          22.8952   72.2379   -1.2974 P.3     1  UNL1        0.2208
     26 O          22.8308   72.9172    0.1614 O.3     1  UNL1       -0.4371
     27 O          23.7126   71.0066   -1.2318 O.2     1  UNL1       -0.5170
     28 O          23.5593   73.2686   -2.3410 O.3     1  UNL1       -0.2865
     29 C          23.0076   74.5563   -2.6214 C.3     1  UNL1        0.2611
     30 C          23.5215   75.0487   -3.9764 C.3     1  UNL1        0.1582
     31 C          25.0445   75.1994   -3.9110 C.3     1  UNL1        0.1625
     32 C          25.4035   76.1568   -2.7713 C.3     1  UNL1        0.1686
     33 C          24.8169   75.6215   -1.4624 C.3     1  UNL1        0.1760
     34 O          25.5252   75.7288   -5.1488 O.3     1  UNL1       -0.3801
     35 O          24.8609   77.4499   -3.0449 O.3     1  UNL1       -0.3794
     36 O          23.4022   75.4756   -1.6008 O.3     1  UNL1       -0.3263
     37 H          26.4842   75.8499   -5.1783 H       1  UNL1        0.2105
     38 H          25.0495   78.1088   -2.3621 H       1  UNL1        0.2105
     39 C          22.3698   74.4428   -6.0365 C.2     1  UNL1        0.2231
     40 C          22.0079   73.4451   -7.1053 C.3     1  UNL1        0.0946
     41 N          23.1698   74.0775   -5.0155 N.am    1  UNL1       -0.2994
     42 O          21.9410   75.5764   -6.0945 O.2     1  UNL1       -0.2751
     43 H          23.5120   73.1711   -4.9682 H       1  UNL1        0.1496
     44 C          25.1203   76.6030   -0.3288 C.3     1  UNL1        0.1693
     45 O          24.5360   76.1255    0.8849 O.3     1  UNL1       -0.3794
     46 H          24.6886   76.6995    1.6479 H       1  UNL1        0.2105
@<TRIPOS>BOND
     1    29    30    1
     2    30    41    1
     3    30    31    1
     4    31    34    1
     5    31    32    1
     6    32    35    1
     7    32    33    1
     8    33    36    1
     9    33    44    1
    10    39    40    1
    11    39    42    2
    12    39    41   am
    13    41    43    1
    14    29    28    1
    15    34    37    1
    16    35    38    1
    17    29    36    1
    18    44    45    1
    19    45    46    1
    20    15     6    1
    21    15    16   ar
    22    16    21    2
    23    16    17   ar
    24    17    23    1
    25    17    18   ar
    26    18    19   ar
    27    19    20   ar
    28    15    20   ar
    29    18    22    2
    30     6     7    1
    31     6    11    1
    32     7     9    1
    33     7     8    1
    34     8    13    1
    35     9    10    1
    36     9    12    1
    37    10     5    1
    38    10    11    1
    39    12    14    1
    40     5     4    1
    41     4     1    1
    42     1     2    1
    43     1    24    1
    44     1     3    2
    45    24    25    1
    46    28    25    1
    47    25    26    1
    48    25    27    2
@<TRIPOS>MOLECULE
UD2
 46 48 0 0 0
SMALL
GASTEIGER

@<TRIPOS>ATOM
      1 P          22.7573   72.5089   -3.5096 P.3     1  UNL1        0.2189
      2 O          22.5446   74.0865   -3.2701 O.3     1  UNL1       -0.4371
      3 O          23.9911   72.2908   -4.2964 O.2     1  UNL1       -0.5170
      4 O          22.8883   71.7634   -2.0881 O.3     1  UNL1       -0.3112
      5 C          22.5085   72.3729   -0.8530 C.3     1  UNL1        0.1811
      6 C          24.0657   72.5909    2.3819 C.3     1  UNL1        0.2383
      7 C          23.8228   71.0752    2.1676 C.3     1  UNL1        0.1895
      8 O          24.8240   70.2997    2.8294 O.3     1  UNL1       -0.3779
      9 C          23.9463   70.9402    0.6301 C.3     1  UNL1        0.1713
     10 C          23.7016   72.3681    0.1059 C.3     1  UNL1        0.1764
     11 O          23.4181   73.1986    1.2431 O.3     1  UNL1       -0.3308
     12 O          25.2549   70.4928    0.2720 O.3     1  UNL1       -0.3794
     13 H          24.7149   69.3447    2.7252 H       1  UNL1        0.2106
     14 H          25.4845   69.6231    0.6259 H       1  UNL1        0.2105
     15 N          23.4453   73.0413    3.6298 N.ar    1  UNL1       -0.2551
     16 C          22.1729   72.7012    3.9021 C.ar    1  UNL1        0.3323
     17 N          21.5774   73.1013    5.0412 N.ar    1  UNL1       -0.2743
     18 C          22.2542   73.8531    5.9331 C.ar    1  UNL1        0.2626
     19 C          23.5946   74.2176    5.6597 C.ar    1  UNL1        0.0795
     20 C          24.1678   73.7989    4.5118 C.ar    1  UNL1        0.0869
     21 O          21.5506   72.0235    3.1072 O.2     1  UNL1       -0.2464
     22 O          21.7166   74.2155    6.9646 O.2     1  UNL1       -0.2670
     23 H          20.6589   72.8482    5.2214 H       1  UNL1        0.1734
     24 O          21.4955   71.9128   -4.3132 O.3     1  UNL1       -0.2703
     25 P          20.0389   71.3849   -3.8745 P.3     1  UNL1        0.2208
     26 O          20.2009   70.1833   -2.8144 O.3     1  UNL1       -0.4371
     27 O          19.2794   72.4916   -3.2526 O.2     1  UNL1       -0.5170
     28 O          19.2476   70.8532   -5.1722 O.3     1  UNL1       -0.2865
     29 C          18.3254   71.6604   -5.9065 C.3     1  UNL1        0.2611
     30 C          16.9249   71.0502   -5.8130 C.3     1  UNL1        0.1582
     31 C          16.9393   69.6595   -6.4550 C.3     1  UNL1        0.1625
     32 C          17.4236   69.7821   -7.9023 C.3     1  UNL1        0.1686
     33 C          18.8054   70.4412   -7.9152 C.3     1  UNL1        0.1760
     34 O          15.6189   69.1123   -6.4379 O.3     1  UNL1       -0.3801
     35 O          16.5046   70.5833   -8.6472 O.3     1  UNL1       -0.3794
     36 O          18.7287   71.7172   -7.2764 O.3     1  UNL1       -0.3263
     37 H          15.5540   68.2303   -6.8290 H       1  UNL1        0.2105
     38 H          16.7497   70.7041   -9.5753 H       1  UNL1        0.2105
     39 C          16.7425   69.7831   -3.7397 C.2     1  UNL1        0.2231
     40 C          16.3411   69.6648   -2.2928 C.3     1  UNL1        0.0946
     41 N          16.5339   70.9359   -4.4057 N.am    1  UNL1       -0.2994
     42 O          17.2540   68.8400   -4.3065 O.2     1  UNL1       -0.2751
     43 H          16.1241   71.6898   -3.9532 H       1  UNL1        0.1496
     44 C          19.2705   70.6217   -9.3614 C.3     1  UNL1        0.1693
     45 O          18.3750   71.5015  -10.0444 O.3     1  UNL1       -0.3794
     46 H          18.6090   71.6620  -10.9688 H       1  UNL1        0.2105
@<TRIPOS>BOND
     1    29    30    1
     2    30    41    1
     3    30    31    1
     4    31    34    1
     5    31    32    1
     6    32    35    1
     7    32    33    1
     8    33    36    1
     9    33    44    1
    10    39    40    1
    11    39    42    2
    12    39    41   am
    13    41    43    1
    14    29    28    1
    15    34    37    1
    16    35    38    1
    17    29    36    1
    18    44    45    1
    19    45    46    1
    20    15     6    1
    21    15    16   ar
    22    16    21    2
    23    16    17   ar
    24    17    23    1
    25    17    18   ar
    26    18    19   ar
    27    19    20   ar
    28    15    20   ar
    29    18    22    2
    30     6     7    1
    31     6    11    1
    32     7     9    1
    33     7     8    1
    34     8    13    1
    35     9    10    1
    36     9    12    1
    37    10     5    1
    38    10    11    1
    39    12    14    1
    40     5     4    1
    41     4     1    1
    42     1     2    1
    43     1    24    1
    44     1     3    2
    45    24    25    1
    46    28    25    1
    47    25    26    1
    48    25    27    2
