@<TRIPOS>MOLECULE
UDP-glaA
 43 45 0 0 0
SMALL
GASTEIGER

@<TRIPOS>ATOM
      1 P          21.7862   73.0999   -5.5214 P.3     1  UNL1        0.2189
      2 O          21.2751   74.4007   -6.3364 O.3     1  UNL1       -0.4371
      3 O          22.5902   72.1230   -6.3285 O.2     1  UNL1       -0.5170
      4 O          20.4412   72.5120   -4.8425 O.3     1  UNL1       -0.3112
      5 C          19.4553   73.4251   -4.3914 C.3     1  UNL1        0.1811
      6 O          17.4991   72.3698   -5.3046 O.3     1  UNL1       -0.3308
      7 O          17.2726   70.9409   -2.6781 O.3     1  UNL1       -0.3794
      8 O          18.3840   69.0456   -4.2932 O.3     1  UNL1       -0.3779
      9 C          18.4428   71.3092   -3.4080 C.3     1  UNL1        0.1713
     10 C          18.6207   70.4024   -4.6074 C.3     1  UNL1        0.1895
     11 C          18.1817   72.6584   -4.0645 C.3     1  UNL1        0.1764
     12 C          17.5986   70.9631   -5.5816 C.3     1  UNL1        0.2383
     13 H          17.1784   71.5717   -1.9441 H       1  UNL1        0.2105
     14 H          19.0054   68.7959   -3.5877 H       1  UNL1        0.2106
     15 O          15.7926   70.7548   -7.7427 O.2     1  UNL1       -0.2464
     16 O          19.2135   70.2714  -10.7927 O.2     1  UNL1       -0.2670
     17 N          17.9897   70.7831   -6.9505 N.ar    1  UNL1       -0.2551
     18 N          17.4973   70.5137   -9.2600 N.ar    1  UNL1       -0.2743
     19 C          17.0038   70.6892   -7.9605 C.ar    1  UNL1        0.3323
     20 C          19.3378   70.7010   -7.2812 C.ar    1  UNL1        0.0869
     21 C          19.7923   70.5340   -8.5251 C.ar    1  UNL1        0.0795
     22 C          18.8281   70.4259   -9.6379 C.ar    1  UNL1        0.2626
     23 H          16.8064   70.4431  -10.0022 H       1  UNL1        0.1734
     24 O          22.5744   73.7457   -4.2657 O.3     1  UNL1       -0.2703
     25 P          23.8420   73.2078   -3.4193 P.3     1  UNL1        0.2208
     26 O          25.0904   73.9968   -4.0789 O.3     1  UNL1       -0.4371
     27 O          23.9877   71.7130   -3.4112 O.2     1  UNL1       -0.5170
     28 O          23.6677   73.8686   -1.9574 O.3     1  UNL1       -0.2858
     29 O          21.7082   72.8642   -1.0908 O.3     1  UNL1       -0.3226
     30 O          23.0212   75.1365    2.1330 O.3     1  UNL1       -0.3794
     31 O          23.1437   76.2026   -0.5789 O.3     1  UNL1       -0.3775
     32 O          21.0761   73.2269    1.6855 O.3     1  UNL1       -0.3792
     33 C          23.1029   74.3255    0.9642 C.3     1  UNL1        0.1718
     34 C          22.4279   75.0254   -0.2202 C.3     1  UNL1        0.1968
     35 C          22.4156   72.9858    1.2420 C.3     1  UNL1        0.1723
     36 C          22.3587   74.0919   -1.4352 C.3     1  UNL1        0.2706
     37 C          22.3671   72.1582   -0.0405 C.3     1  UNL1        0.1830
     38 H          23.4576   74.6542    2.8558 H       1  UNL1        0.2105
     39 H          22.6861   76.6049   -1.3363 H       1  UNL1        0.2106
     40 H          20.5431   73.5046    0.9214 H       1  UNL1        0.2106
     41 O          20.8638   70.6064   -0.9549 O.co2   1  UNL1       -0.5466
     42 O          21.6035   70.2104    1.1648 O.co2   1  UNL1       -0.5466
     43 C          21.5894   70.8952    0.1523 C.2     1  UNL1        0.0799
@<TRIPOS>UNITY_ATOM_ATTR
41 1
charge -1
@<TRIPOS>BOND
     1     1     4    1
     2     1    24    1
     3     1     2    1
     4     1     3    2
     5    25    28    1
     6    25    24    1
     7    25    26    1
     8    25    27    2
     9     6    11    1
    10     6    12    1
    11    29    36    1
    12    29    37    1
    13     7     9    1
    14     7    13    1
    15     8    10    1
    16     8    14    1
    17     4     5    1
    18    28    36    1
    19    30    33    1
    20    30    38    1
    21    31    34    1
    22    31    39    1
    23    32    35    1
    24    32    40    1
    25    41    43   ar
    26    15    19    2
    27    42    43   ar
    28    16    22    2
    29    17    12    1
    30    17    19   ar
    31    17    20   ar
    32    18    19   ar
    33    18    22   ar
    34    18    23    1
    35     9    10    1
    36     9    11    1
    37    10    12    1
    38    11     5    1
    39    33    34    1
    40    33    35    1
    41    34    36    1
    42    35    37    1
    43    37    43    1
    44    20    21   ar
    45    21    22   ar
@<TRIPOS>MOLECULE
UDP-glaA
 43 45 0 0 0
SMALL
GASTEIGER

@<TRIPOS>ATOM
      1 P          22.2789   71.4195   -3.0256 P.3     1  UNL1        0.2189
      2 O          21.8766   72.9780   -2.8621 O.3     1  UNL1       -0.4371
      3 O          23.7310   71.1670   -3.3084 O.2     1  UNL1       -0.5170
      4 O          21.2400   70.8629   -4.1329 O.3     1  UNL1       -0.3112
      5 C          20.2918   69.8848   -3.7409 C.3     1  UNL1        0.1811
      6 O          18.6589   71.3138   -4.7735 O.3     1  UNL1       -0.3308
      7 O          16.7071   70.2080   -2.7839 O.3     1  UNL1       -0.3794
      8 O          16.1121   68.8046   -5.0449 O.3     1  UNL1       -0.3779
      9 C          17.7869   69.5533   -3.4495 C.3     1  UNL1        0.1713
     10 C          17.4299   69.2917   -4.8975 C.3     1  UNL1        0.1895
     11 C          18.9320   70.5492   -3.5785 C.3     1  UNL1        0.1764
     12 C          17.6186   70.6637   -5.5221 C.3     1  UNL1        0.2383
     13 H          16.9955   70.3897   -1.8732 H       1  UNL1        0.2105
     14 H          16.0441   67.9833   -4.5282 H       1  UNL1        0.2106
     15 O          15.8255   70.3155   -7.6759 O.2     1  UNL1       -0.2464
     16 O          19.2404   70.3901  -10.7698 O.2     1  UNL1       -0.2670
     17 N          18.0116   70.5893   -6.9003 N.ar    1  UNL1       -0.2551
     18 N          17.5272   70.3524   -9.2151 N.ar    1  UNL1       -0.2743
     19 C          17.0324   70.4121   -7.9056 C.ar    1  UNL1        0.3323
     20 C          19.3549   70.6913   -7.2445 C.ar    1  UNL1        0.0869
     21 C          19.8107   70.6329   -8.4978 C.ar    1  UNL1        0.0795
     22 C          18.8536   70.4485   -9.6066 C.ar    1  UNL1        0.2626
     23 H          16.8413   70.2248   -9.9542 H       1  UNL1        0.1734
     24 O          21.7353   70.7592   -1.6531 O.3     1  UNL1       -0.2703
     25 P          21.3156   71.4337   -0.2455 P.3     1  UNL1        0.2208
     26 O          21.5420   70.2387    0.8207 O.3     1  UNL1       -0.4371
     27 O          19.9341   72.0228   -0.2324 O.2     1  UNL1       -0.5170
     28 O          22.4939   72.4903    0.0691 O.3     1  UNL1       -0.2858
     29 O          22.1562   73.6562    2.1004 O.3     1  UNL1       -0.3226
     30 O          25.4374   75.6387    0.4935 O.3     1  UNL1       -0.3794
     31 O          23.2155   74.8270   -1.2124 O.3     1  UNL1       -0.3775
     32 O          24.0707   75.6419    2.8939 O.3     1  UNL1       -0.3792
     33 C          24.5614   74.5556    0.7930 C.3     1  UNL1        0.1718
     34 C          23.1685   74.8180    0.2105 C.3     1  UNL1        0.1968
     35 C          24.4721   74.3967    2.3132 C.3     1  UNL1        0.1723
     36 C          22.1756   73.7439    0.6718 C.3     1  UNL1        0.2706
     37 C          23.4297   73.3352    2.6579 C.3     1  UNL1        0.1830
     38 H          26.3041   75.4312    0.8825 H       1  UNL1        0.2105
     39 H          22.3125   74.9866   -1.5348 H       1  UNL1        0.2106
     40 H          23.1261   75.7787    2.7093 H       1  UNL1        0.2106
     41 O          22.6261   72.0611    4.4564 O.co2   1  UNL1       -0.5466
     42 O          23.5288   74.0962    4.9472 O.co2   1  UNL1       -0.5466
     43 C          23.2154   73.2380    4.1349 C.2     1  UNL1        0.0799
@<TRIPOS>UNITY_ATOM_ATTR
41 1
charge -1
@<TRIPOS>BOND
     1     1     4    1
     2     1    24    1
     3     1     2    1
     4     1     3    2
     5    25    28    1
     6    25    24    1
     7    25    26    1
     8    25    27    2
     9     6    11    1
    10     6    12    1
    11    29    36    1
    12    29    37    1
    13     7     9    1
    14     7    13    1
    15     8    10    1
    16     8    14    1
    17     4     5    1
    18    28    36    1
    19    30    33    1
    20    30    38    1
    21    31    34    1
    22    31    39    1
    23    32    35    1
    24    32    40    1
    25    41    43   ar
    26    15    19    2
    27    42    43   ar
    28    16    22    2
    29    17    12    1
    30    17    19   ar
    31    17    20   ar
    32    18    19   ar
    33    18    22   ar
    34    18    23    1
    35     9    10    1
    36     9    11    1
    37    10    12    1
    38    11     5    1
    39    33    34    1
    40    33    35    1
    41    34    36    1
    42    35    37    1
    43    37    43    1
    44    20    21   ar
    45    21    22   ar
@<TRIPOS>MOLECULE
UDP-glaA
 43 45 0 0 0
SMALL
GASTEIGER

@<TRIPOS>ATOM
      1 P          22.8700   71.7351   -2.2827 P.3     1  UNL1        0.2189
      2 O          22.4391   73.2931   -2.3500 O.3     1  UNL1       -0.4371
      3 O          23.8679   71.3091   -3.3194 O.2     1  UNL1       -0.5170
      4 O          21.4615   70.9404   -2.2944 O.3     1  UNL1       -0.3112
      5 C          20.7668   70.8111   -3.5232 C.3     1  UNL1        0.1811
      6 O          18.7538   71.6770   -4.5092 O.3     1  UNL1       -0.3308
      7 O          17.2904   70.2740   -2.2999 O.3     1  UNL1       -0.3794
      8 O          16.9491   68.5804   -4.4097 O.3     1  UNL1       -0.3779
      9 C          18.4616   69.8679   -3.0078 C.3     1  UNL1        0.1713
     10 C          18.0977   69.4027   -4.4020 C.3     1  UNL1        0.1895
     11 C          19.2925   71.1119   -3.2937 C.3     1  UNL1        0.1764
     12 C          17.8782   70.7195   -5.1271 C.3     1  UNL1        0.2383
     13 H          17.5762   70.5997   -1.4294 H       1  UNL1        0.2105
     14 H          17.1326   67.8158   -3.8372 H       1  UNL1        0.2106
     15 O          16.0392   69.9563   -7.1299 O.2     1  UNL1       -0.2464
     16 O          19.1908   70.4260  -10.4593 O.2     1  UNL1       -0.2670
     17 N          18.1909   70.6344   -6.5250 N.ar    1  UNL1       -0.2551
     18 N          17.6100   70.1902   -8.7864 N.ar    1  UNL1       -0.2743
     19 C          17.1952   70.2400   -7.4490 C.ar    1  UNL1        0.3323
     20 C          19.4730   70.9398   -6.9683 C.ar    1  UNL1        0.0869
     21 C          19.8527   70.8879   -8.2470 C.ar    1  UNL1        0.0795
     22 C          18.8734   70.4842   -9.2754 C.ar    1  UNL1        0.2626
     23 H          16.9108   69.9085   -9.4683 H       1  UNL1        0.1734
     24 O          23.3711   71.5634   -0.7548 O.3     1  UNL1       -0.2703
     25 P          22.5941   71.0437    0.5638 P.3     1  UNL1        0.2208
     26 O          23.6508   70.0216    1.2384 O.3     1  UNL1       -0.4371
     27 O          21.2438   70.4467    0.2879 O.2     1  UNL1       -0.5170
     28 O          22.5700   72.3182    1.5532 O.3     1  UNL1       -0.2858
     29 O          24.1430   72.6451    3.2905 O.3     1  UNL1       -0.3226
     30 O          20.9341   74.9541    4.5752 O.3     1  UNL1       -0.3794
     31 O          20.4868   72.3385    3.3650 O.3     1  UNL1       -0.3775
     32 O          23.5536   74.5515    5.3537 O.3     1  UNL1       -0.3792
     33 C          21.8395   74.3351    3.6656 C.3     1  UNL1        0.1718
     34 C          21.7616   72.8097    3.7889 C.3     1  UNL1        0.1968
     35 C          23.2599   74.8141    3.9777 C.3     1  UNL1        0.1723
     36 C          22.8501   72.1399    2.9410 C.3     1  UNL1        0.2706
     37 C          24.2601   74.0553    3.1082 C.3     1  UNL1        0.1830
     38 H          21.0190   75.9164    4.4644 H       1  UNL1        0.2105
     39 H          20.4882   71.3704    3.4517 H       1  UNL1        0.2106
     40 H          23.6985   73.5962    5.4618 H       1  UNL1        0.2106
     41 O          26.5140   73.4045    3.0997 O.co2   1  UNL1       -0.5466
     42 O          26.0218   75.4304    4.0220 O.co2   1  UNL1       -0.5466
     43 C          25.6702   74.3976    3.4704 C.2     1  UNL1        0.0799
@<TRIPOS>UNITY_ATOM_ATTR
41 1
charge -1
@<TRIPOS>BOND
     1     1     4    1
     2     1    24    1
     3     1     2    1
     4     1     3    2
     5    25    28    1
     6    25    24    1
     7    25    26    1
     8    25    27    2
     9     6    11    1
    10     6    12    1
    11    29    36    1
    12    29    37    1
    13     7     9    1
    14     7    13    1
    15     8    10    1
    16     8    14    1
    17     4     5    1
    18    28    36    1
    19    30    33    1
    20    30    38    1
    21    31    34    1
    22    31    39    1
    23    32    35    1
    24    32    40    1
    25    41    43   ar
    26    15    19    2
    27    42    43   ar
    28    16    22    2
    29    17    12    1
    30    17    19   ar
    31    17    20   ar
    32    18    19   ar
    33    18    22   ar
    34    18    23    1
    35     9    10    1
    36     9    11    1
    37    10    12    1
    38    11     5    1
    39    33    34    1
    40    33    35    1
    41    34    36    1
    42    35    37    1
    43    37    43    1
    44    20    21   ar
    45    21    22   ar
@<TRIPOS>MOLECULE
UDP-glaA
 43 45 0 0 0
SMALL
GASTEIGER

@<TRIPOS>ATOM
      1 P          23.0410   71.4625   -2.7292 P.3     1  UNL1        0.2189
      2 O          23.1353   73.0570   -2.4724 O.3     1  UNL1       -0.4371
      3 O          24.3274   70.8111   -3.1450 O.2     1  UNL1       -0.5170
      4 O          21.8078   71.3067   -3.7638 O.3     1  UNL1       -0.3112
      5 C          21.6137   72.3131   -4.7430 C.3     1  UNL1        0.1811
      6 O          20.5516   70.4859   -5.8865 O.3     1  UNL1       -0.3308
      7 O          20.9145   72.0893   -8.3942 O.3     1  UNL1       -0.3794
      8 O          18.2917   72.5210   -7.7856 O.3     1  UNL1       -0.3779
      9 C          20.6157   72.5361   -7.0718 C.3     1  UNL1        0.1713
     10 C          19.1755   72.2232   -6.7246 C.3     1  UNL1        0.1895
     11 C          21.3785   71.6522   -6.0938 C.3     1  UNL1        0.1764
     12 C          19.2403   70.7366   -6.4183 C.3     1  UNL1        0.2383
     13 H          21.8549   72.2750   -8.5573 H       1  UNL1        0.2105
     14 H          18.3901   73.4665   -7.9919 H       1  UNL1        0.2106
     15 O          16.6140   69.9182   -7.0574 O.2     1  UNL1       -0.2464
     16 O          15.5608   69.2104   -2.6270 O.2     1  UNL1       -0.2670
     17 N          18.2592   70.3327   -5.4521 N.ar    1  UNL1       -0.2551
     18 N          16.0911   69.5668   -4.8508 N.ar    1  UNL1       -0.2743
     19 C          16.9684   69.9405   -5.8773 C.ar    1  UNL1        0.3323
     20 C          18.5799   70.3279   -4.0991 C.ar    1  UNL1        0.0869
     21 C          17.7324   69.9685   -3.1325 C.ar    1  UNL1        0.0795
     22 C          16.3641   69.5462   -3.4918 C.ar    1  UNL1        0.2626
     23 H          15.1573   69.2816   -5.1331 H       1  UNL1        0.1734
     24 O          22.4230   70.9079   -1.3415 O.3     1  UNL1       -0.2703
     25 P          21.3623   71.5666   -0.3150 P.3     1  UNL1        0.2208
     26 O          21.1785   70.4226    0.8135 O.3     1  UNL1       -0.4371
     27 O          20.0810   72.0155   -0.9572 O.2     1  UNL1       -0.5170
     28 O          22.1847   72.7416    0.4246 O.3     1  UNL1       -0.2858
     29 O          23.3385   71.8026    2.2649 O.3     1  UNL1       -0.3226
     30 O          24.3544   75.8227    2.5591 O.3     1  UNL1       -0.3794
     31 O          21.6340   75.0285    1.8700 O.3     1  UNL1       -0.3775
     32 O          25.1241   73.4657    3.7764 O.3     1  UNL1       -0.3792
     33 C          24.0221   74.5830    1.9401 C.3     1  UNL1        0.1718
     34 C          22.6214   74.1311    2.3667 C.3     1  UNL1        0.1968
     35 C          25.0585   73.5323    2.3481 C.3     1  UNL1        0.1723
     36 C          22.3233   72.7201    1.8447 C.3     1  UNL1        0.2706
     37 C          24.6417   72.1649    1.8110 C.3     1  UNL1        0.1830
     38 H          25.2475   76.0682    2.2632 H       1  UNL1        0.2105
     39 H          20.7661   74.6974    2.1563 H       1  UNL1        0.2106
     40 H          24.3272   73.0134    4.1015 H       1  UNL1        0.2106
     41 O          24.8629   69.9503    2.5531 O.co2   1  UNL1       -0.5466
     42 O          26.7653   71.2011    2.4365 O.co2   1  UNL1       -0.5466
     43 C          25.5566   71.0850    2.2945 C.2     1  UNL1        0.0799
@<TRIPOS>UNITY_ATOM_ATTR
41 1
charge -1
@<TRIPOS>BOND
     1     1     4    1
     2     1    24    1
     3     1     2    1
     4     1     3    2
     5    25    28    1
     6    25    24    1
     7    25    26    1
     8    25    27    2
     9     6    11    1
    10     6    12    1
    11    29    36    1
    12    29    37    1
    13     7     9    1
    14     7    13    1
    15     8    10    1
    16     8    14    1
    17     4     5    1
    18    28    36    1
    19    30    33    1
    20    30    38    1
    21    31    34    1
    22    31    39    1
    23    32    35    1
    24    32    40    1
    25    41    43   ar
    26    15    19    2
    27    42    43   ar
    28    16    22    2
    29    17    12    1
    30    17    19   ar
    31    17    20   ar
    32    18    19   ar
    33    18    22   ar
    34    18    23    1
    35     9    10    1
    36     9    11    1
    37    10    12    1
    38    11     5    1
    39    33    34    1
    40    33    35    1
    41    34    36    1
    42    35    37    1
    43    37    43    1
    44    20    21   ar
    45    21    22   ar
@<TRIPOS>MOLECULE
UDP-glaA
 43 45 0 0 0
SMALL
GASTEIGER

@<TRIPOS>ATOM
      1 P          20.3022   72.8499   -3.1611 P.3     1  UNL1        0.2189
      2 O          20.2497   72.2441   -1.6619 O.3     1  UNL1       -0.4371
      3 O          19.3680   73.9970   -3.4133 O.2     1  UNL1       -0.5170
      4 O          20.1002   71.5569   -4.1112 O.3     1  UNL1       -0.3112
      5 C          19.3145   70.4793   -3.6308 C.3     1  UNL1        0.1811
      6 O          17.6562   71.4577   -5.0685 O.3     1  UNL1       -0.3308
      7 O          15.6240   70.0522   -3.3696 O.3     1  UNL1       -0.3794
      8 O          15.7871   68.4379   -5.5612 O.3     1  UNL1       -0.3779
      9 C          16.9250   69.6186   -3.7663 C.3     1  UNL1        0.1713
     10 C          16.9206   69.2107   -5.2244 C.3     1  UNL1        0.1895
     11 C          17.8419   70.8347   -3.7783 C.3     1  UNL1        0.1764
     12 C          16.9402   70.5565   -5.9289 C.3     1  UNL1        0.2383
     13 H          15.6845   70.3396   -2.4426 H       1  UNL1        0.2105
     14 H          15.7905   67.6495   -4.9915 H       1  UNL1        0.2106
     15 O          15.6158   70.6346   -8.4220 O.2     1  UNL1       -0.2464
     16 O          19.5840   70.3302  -10.7457 O.2     1  UNL1       -0.2670
     17 N          17.6023   70.4999   -7.2008 N.ar    1  UNL1       -0.2551
     18 N          17.5927   70.4824   -9.5775 N.ar    1  UNL1       -0.2743
     19 C          16.8446   70.5453   -8.3944 C.ar    1  UNL1        0.3323
     20 C          18.9880   70.4004   -7.2571 C.ar    1  UNL1        0.0869
     21 C          19.6867   70.3419   -8.3930 C.ar    1  UNL1        0.0795
     22 C          18.9713   70.3826   -9.6838 C.ar    1  UNL1        0.2626
     23 H          17.0688   70.5128  -10.4480 H       1  UNL1        0.1734
     24 O          21.8686   73.2019   -3.3550 O.3     1  UNL1       -0.2703
     25 P          23.1986   72.4178   -2.8766 P.3     1  UNL1        0.2208
     26 O          24.2068   72.5992   -4.1283 O.3     1  UNL1       -0.4371
     27 O          22.9609   70.9905   -2.4739 O.2     1  UNL1       -0.5170
     28 O          23.8227   73.3440   -1.7119 O.3     1  UNL1       -0.2858
     29 O          22.8363   72.6421    0.3212 O.3     1  UNL1       -0.3226
     30 O          25.4037   75.6538    1.5929 O.3     1  UNL1       -0.3794
     31 O          23.8482   75.9681   -0.8540 O.3     1  UNL1       -0.3775
     32 O          23.8181   73.7334    2.7878 O.3     1  UNL1       -0.3792
     33 C          24.9280   74.5630    0.8092 C.3     1  UNL1        0.1718
     34 C          23.6204   74.9410    0.1052 C.3     1  UNL1        0.1968
     35 C          24.7003   73.3574    1.7251 C.3     1  UNL1        0.1723
     36 C          23.0118   73.7230   -0.6007 C.3     1  UNL1        0.2706
     37 C          24.0567   72.2233    0.9302 C.3     1  UNL1        0.1830
     38 H          26.2293   75.3694    2.0210 H       1  UNL1        0.2105
     39 H          22.9969   76.1666   -1.2791 H       1  UNL1        0.2106
     40 H          22.9179   73.8116    2.4289 H       1  UNL1        0.2106
     41 O          22.4693   70.5924    1.4995 O.co2   1  UNL1       -0.5466
     42 O          24.4088   70.6161    2.6974 O.co2   1  UNL1       -0.5466
     43 C          23.6972   71.0712    1.8136 C.2     1  UNL1        0.0799
@<TRIPOS>UNITY_ATOM_ATTR
41 1
charge -1
@<TRIPOS>BOND
     1     1     4    1
     2     1    24    1
     3     1     2    1
     4     1     3    2
     5    25    28    1
     6    25    24    1
     7    25    26    1
     8    25    27    2
     9     6    11    1
    10     6    12    1
    11    29    36    1
    12    29    37    1
    13     7     9    1
    14     7    13    1
    15     8    10    1
    16     8    14    1
    17     4     5    1
    18    28    36    1
    19    30    33    1
    20    30    38    1
    21    31    34    1
    22    31    39    1
    23    32    35    1
    24    32    40    1
    25    41    43   ar
    26    15    19    2
    27    42    43   ar
    28    16    22    2
    29    17    12    1
    30    17    19   ar
    31    17    20   ar
    32    18    19   ar
    33    18    22   ar
    34    18    23    1
    35     9    10    1
    36     9    11    1
    37    10    12    1
    38    11     5    1
    39    33    34    1
    40    33    35    1
    41    34    36    1
    42    35    37    1
    43    37    43    1
    44    20    21   ar
    45    21    22   ar
@<TRIPOS>MOLECULE
UDP-glaA
 43 45 0 0 0
SMALL
GASTEIGER

@<TRIPOS>ATOM
      1 P          22.6601   72.4749   -3.9162 P.3     1  UNL1        0.2189
      2 O          22.8228   73.6952   -4.9658 O.3     1  UNL1       -0.4371
      3 O          23.9195   71.7080   -3.6369 O.2     1  UNL1       -0.5170
      4 O          21.4285   71.6114   -4.5105 O.3     1  UNL1       -0.3112
      5 C          20.8296   70.6280   -3.6838 C.3     1  UNL1        0.1811
      6 O          18.8589   71.6361   -4.6189 O.3     1  UNL1       -0.3308
      7 O          17.3459   70.2805   -2.4133 O.3     1  UNL1       -0.3794
      8 O          16.8680   68.6549   -4.5499 O.3     1  UNL1       -0.3779
      9 C          18.4787   69.8179   -3.1485 C.3     1  UNL1        0.1713
     10 C          18.0653   69.4046   -4.5452 C.3     1  UNL1        0.1895
     11 C          19.3804   71.0141   -3.4238 C.3     1  UNL1        0.1764
     12 C          17.9163   70.7471   -5.2406 C.3     1  UNL1        0.2383
     13 H          17.6648   70.5700   -1.5415 H       1  UNL1        0.2105
     14 H          17.0129   67.8687   -3.9956 H       1  UNL1        0.2106
     15 O          16.0120   70.0993   -7.2230 O.2     1  UNL1       -0.2464
     16 O          19.1252   70.4852  -10.5991 O.2     1  UNL1       -0.2670
     17 N          18.2015   70.6716   -6.6450 N.ar    1  UNL1       -0.2551
     18 N          17.5636   70.2914   -8.9028 N.ar    1  UNL1       -0.2743
     19 C          17.1740   70.3371   -7.5577 C.ar    1  UNL1        0.3323
     20 C          19.4883   70.9275   -7.1057 C.ar    1  UNL1        0.0869
     21 C          19.8438   70.8804   -8.3915 C.ar    1  UNL1        0.0795
     22 C          18.8305   70.5376   -9.4089 C.ar    1  UNL1        0.2626
     23 H          16.8414   70.0523   -9.5768 H       1  UNL1        0.1734
     24 O          22.0085   73.1940   -2.6226 O.3     1  UNL1       -0.2703
     25 P          22.2780   72.9813   -1.0431 P.3     1  UNL1        0.2208
     26 O          20.8059   72.6590   -0.4556 O.3     1  UNL1       -0.4371
     27 O          22.9731   74.1336   -0.3762 O.2     1  UNL1       -0.5170
     28 O          23.0713   71.5792   -0.9489 O.3     1  UNL1       -0.2858
     29 O          24.4074   71.7523    0.9965 O.3     1  UNL1       -0.3226
     30 O          20.5805   72.3269    2.5143 O.3     1  UNL1       -0.3794
     31 O          21.0761   70.3050    0.4718 O.3     1  UNL1       -0.3775
     32 O          23.1658   72.5230    3.4669 O.3     1  UNL1       -0.3792
     33 C          21.6585   72.3857    1.5844 C.3     1  UNL1        0.1718
     34 C          22.1052   70.9728    1.1941 C.3     1  UNL1        0.1968
     35 C          22.8236   73.1456    2.2243 C.3     1  UNL1        0.1723
     36 C          23.3716   71.0227    0.3303 C.3     1  UNL1        0.2706
     37 C          24.0378   73.0967    1.2994 C.3     1  UNL1        0.1830
     38 H          20.3327   73.2411    2.7344 H       1  UNL1        0.2105
     39 H          21.4072   69.4213    0.2388 H       1  UNL1        0.2106
     40 H          23.6270   71.6884    3.2776 H       1  UNL1        0.2106
     41 O          25.2774   75.0479    1.6995 O.co2   1  UNL1       -0.5466
     42 O          26.0747   73.1094    2.5959 O.co2   1  UNL1       -0.5466
     43 C          25.2393   73.7152    1.9405 C.2     1  UNL1        0.0799
@<TRIPOS>UNITY_ATOM_ATTR
41 1
charge -1
@<TRIPOS>BOND
     1     1     4    1
     2     1    24    1
     3     1     2    1
     4     1     3    2
     5    25    28    1
     6    25    24    1
     7    25    26    1
     8    25    27    2
     9     6    11    1
    10     6    12    1
    11    29    36    1
    12    29    37    1
    13     7     9    1
    14     7    13    1
    15     8    10    1
    16     8    14    1
    17     4     5    1
    18    28    36    1
    19    30    33    1
    20    30    38    1
    21    31    34    1
    22    31    39    1
    23    32    35    1
    24    32    40    1
    25    41    43   ar
    26    15    19    2
    27    42    43   ar
    28    16    22    2
    29    17    12    1
    30    17    19   ar
    31    17    20   ar
    32    18    19   ar
    33    18    22   ar
    34    18    23    1
    35     9    10    1
    36     9    11    1
    37    10    12    1
    38    11     5    1
    39    33    34    1
    40    33    35    1
    41    34    36    1
    42    35    37    1
    43    37    43    1
    44    20    21   ar
    45    21    22   ar
@<TRIPOS>MOLECULE
UDP-glaA
 43 45 0 0 0
SMALL
GASTEIGER

@<TRIPOS>ATOM
      1 P          23.2025   72.0076   -2.5323 P.3     1  UNL1        0.2189
      2 O          23.7729   73.4383   -2.0374 O.3     1  UNL1       -0.4371
      3 O          24.2011   71.1382   -3.2389 O.2     1  UNL1       -0.5170
      4 O          21.8780   72.3877   -3.3789 O.3     1  UNL1       -0.3112
      5 C          21.4348   71.4902   -4.3826 C.3     1  UNL1        0.1811
      6 O          21.3578   71.2040   -6.7672 O.3     1  UNL1       -0.3308
      7 O          23.0363   73.6833   -6.9313 O.3     1  UNL1       -0.3794
      8 O          20.5394   74.6154   -7.5080 O.3     1  UNL1       -0.3779
      9 C          21.9905   73.3597   -6.0153 C.3     1  UNL1        0.1713
     10 C          20.6433   73.4622   -6.6987 C.3     1  UNL1        0.1895
     11 C          22.0794   71.8706   -5.7080 C.3     1  UNL1        0.1764
     12 C          20.6002   72.1762   -7.5064 C.3     1  UNL1        0.2383
     13 H          23.8796   73.5662   -6.4616 H       1  UNL1        0.2105
     14 H          20.6861   75.3885   -6.9362 H       1  UNL1        0.2106
     15 O          19.6709   70.9029   -9.8495 O.2     1  UNL1       -0.2464
     16 O          15.4485   70.3426   -8.0900 O.2     1  UNL1       -0.2670
     17 N          19.2633   71.6872   -7.6876 N.ar    1  UNL1       -0.2551
     18 N          17.5688   70.6252   -8.9720 N.ar    1  UNL1       -0.2743
     19 C          18.8978   71.0635   -8.9034 C.ar    1  UNL1        0.3323
     20 C          18.3295   71.8278   -6.6670 C.ar    1  UNL1        0.0869
     21 C          17.0662   71.4041   -6.7475 C.ar    1  UNL1        0.0795
     22 C          16.6037   70.7430   -7.9839 C.ar    1  UNL1        0.2626
     23 H          17.2836   70.1743   -9.8372 H       1  UNL1        0.1734
     24 O          22.5958   71.3704   -1.1755 O.3     1  UNL1       -0.2703
     25 P          21.3091   71.7883   -0.2909 P.3     1  UNL1        0.2208
     26 O          20.9587   70.4323    0.5181 O.3     1  UNL1       -0.4371
     27 O          20.1666   72.3459   -1.0907 O.2     1  UNL1       -0.5170
     28 O          21.8918   72.7932    0.8292 O.3     1  UNL1       -0.2858
     29 O          23.9480   72.7896    2.0001 O.3     1  UNL1       -0.3226
     30 O          21.3258   74.3010    4.8495 O.3     1  UNL1       -0.3794
     31 O          20.5247   72.0913    3.1229 O.3     1  UNL1       -0.3775
     32 O          24.0586   73.9766    4.6111 O.3     1  UNL1       -0.3792
     33 C          21.8845   74.0573    3.5615 C.3     1  UNL1        0.1718
     34 C          21.8641   72.5580    3.2452 C.3     1  UNL1        0.1968
     35 C          23.3243   74.5778    3.5396 C.3     1  UNL1        0.1723
     36 C          22.6164   72.2679    1.9405 C.3     1  UNL1        0.2706
     37 C          23.9868   74.1993    2.2168 C.3     1  UNL1        0.1830
     38 H          21.3615   75.2598    5.0081 H       1  UNL1        0.2105
     39 H          20.5625   71.1428    2.9138 H       1  UNL1        0.2106
     40 H          24.2388   73.0496    4.3801 H       1  UNL1        0.2106
     41 O          26.1979   73.5526    2.6600 O.co2   1  UNL1       -0.5466
     42 O          25.8767   75.6510    1.8289 O.co2   1  UNL1       -0.5466
     43 C          25.4346   74.5743    2.2028 C.2     1  UNL1        0.0799
@<TRIPOS>UNITY_ATOM_ATTR
41 1
charge -1
@<TRIPOS>BOND
     1     1     4    1
     2     1    24    1
     3     1     2    1
     4     1     3    2
     5    25    28    1
     6    25    24    1
     7    25    26    1
     8    25    27    2
     9     6    11    1
    10     6    12    1
    11    29    36    1
    12    29    37    1
    13     7     9    1
    14     7    13    1
    15     8    10    1
    16     8    14    1
    17     4     5    1
    18    28    36    1
    19    30    33    1
    20    30    38    1
    21    31    34    1
    22    31    39    1
    23    32    35    1
    24    32    40    1
    25    41    43   ar
    26    15    19    2
    27    42    43   ar
    28    16    22    2
    29    17    12    1
    30    17    19   ar
    31    17    20   ar
    32    18    19   ar
    33    18    22   ar
    34    18    23    1
    35     9    10    1
    36     9    11    1
    37    10    12    1
    38    11     5    1
    39    33    34    1
    40    33    35    1
    41    34    36    1
    42    35    37    1
    43    37    43    1
    44    20    21   ar
    45    21    22   ar
@<TRIPOS>MOLECULE
UDP-glaA
 43 45 0 0 0
SMALL
GASTEIGER

@<TRIPOS>ATOM
      1 P          21.2386   72.6773   -4.4039 P.3     1  UNL1        0.2189
      2 O          21.6339   74.2289   -4.1722 O.3     1  UNL1       -0.4371
      3 O          21.6394   72.1141   -5.7360 O.2     1  UNL1       -0.5170
      4 O          19.6583   72.6228   -4.0644 O.3     1  UNL1       -0.3112
      5 C          19.0995   71.3927   -3.6357 C.3     1  UNL1        0.1811
      6 O          17.3241   71.8423   -5.1913 O.3     1  UNL1       -0.3308
      7 O          15.5506   70.3076   -3.3230 O.3     1  UNL1       -0.3794
      8 O          16.0722   68.4837   -5.2818 O.3     1  UNL1       -0.3779
      9 C          16.9198   70.0822   -3.6579 C.3     1  UNL1        0.1713
     10 C          17.0303   69.4954   -5.0493 C.3     1  UNL1        0.1895
     11 C          17.5906   71.4387   -3.8300 C.3     1  UNL1        0.1764
     12 C          16.8136   70.7173   -5.9256 C.3     1  UNL1        0.2383
     13 H          15.5316   70.7190   -2.4421 H       1  UNL1        0.2105
     14 H          16.2097   67.7911   -4.6128 H       1  UNL1        0.2106
     15 O          15.5527   70.7323   -8.4525 O.2     1  UNL1       -0.2464
     16 O          19.5767   70.3495  -10.6661 O.2     1  UNL1       -0.2670
     17 N          17.5073   70.6235   -7.1783 N.ar    1  UNL1       -0.2551
     18 N          17.5573   70.5411   -9.5531 N.ar    1  UNL1       -0.2743
     19 C          16.7801   70.6391   -8.3915 C.ar    1  UNL1        0.3323
     20 C          18.8935   70.5172   -7.1968 C.ar    1  UNL1        0.0869
     21 C          19.6202   70.4251   -8.3127 C.ar    1  UNL1        0.0795
     22 C          18.9377   70.4332   -9.6218 C.ar    1  UNL1        0.2626
     23 H          17.0556   70.5497  -10.4371 H       1  UNL1        0.1734
     24 O          21.9091   71.9386   -3.1311 O.3     1  UNL1       -0.2703
     25 P          23.4394   71.9006   -2.6122 P.3     1  UNL1        0.2208
     26 O          24.0587   73.2820   -3.1816 O.3     1  UNL1       -0.4371
     27 O          24.1967   70.6683   -3.0169 O.2     1  UNL1       -0.5170
     28 O          23.3362   72.1259   -1.0176 O.3     1  UNL1       -0.2858
     29 O          24.5464   71.0515    0.7088 O.3     1  UNL1       -0.3226
     30 O          20.9310   71.8991    2.5768 O.3     1  UNL1       -0.3794
     31 O          20.9869   70.9432   -0.1780 O.3     1  UNL1       -0.3775
     32 O          23.4090   70.9485    3.3421 O.3     1  UNL1       -0.3792
     33 C          22.0401   72.0718    1.6992 C.3     1  UNL1        0.1718
     34 C          22.1116   70.9168    0.6945 C.3     1  UNL1        0.1968
     35 C          23.3254   72.1240    2.5297 C.3     1  UNL1        0.1723
     36 C          23.3952   71.0019   -0.1406 C.3     1  UNL1        0.2706
     37 C          24.5360   72.1658    1.5997 C.3     1  UNL1        0.1830
     38 H          20.9264   72.6496    3.1951 H       1  UNL1        0.2105
     39 H          21.0806   70.2020   -0.7998 H       1  UNL1        0.2106
     40 H          23.6382   70.1949    2.7723 H       1  UNL1        0.2106
     41 O          26.0759   73.2621    2.9892 O.co2   1  UNL1       -0.5466
     42 O          26.5376   71.1008    2.4298 O.co2   1  UNL1       -0.5466
     43 C          25.8178   72.0869    2.3663 C.2     1  UNL1        0.0799
@<TRIPOS>UNITY_ATOM_ATTR
41 1
charge -1
@<TRIPOS>BOND
     1     1     4    1
     2     1    24    1
     3     1     2    1
     4     1     3    2
     5    25    28    1
     6    25    24    1
     7    25    26    1
     8    25    27    2
     9     6    11    1
    10     6    12    1
    11    29    36    1
    12    29    37    1
    13     7     9    1
    14     7    13    1
    15     8    10    1
    16     8    14    1
    17     4     5    1
    18    28    36    1
    19    30    33    1
    20    30    38    1
    21    31    34    1
    22    31    39    1
    23    32    35    1
    24    32    40    1
    25    41    43   ar
    26    15    19    2
    27    42    43   ar
    28    16    22    2
    29    17    12    1
    30    17    19   ar
    31    17    20   ar
    32    18    19   ar
    33    18    22   ar
    34    18    23    1
    35     9    10    1
    36     9    11    1
    37    10    12    1
    38    11     5    1
    39    33    34    1
    40    33    35    1
    41    34    36    1
    42    35    37    1
    43    37    43    1
    44    20    21   ar
    45    21    22   ar
@<TRIPOS>MOLECULE
UDP-glaA
 43 45 0 0 0
SMALL
GASTEIGER

@<TRIPOS>ATOM
      1 P          23.0050   71.6128   -2.4399 P.3     1  UNL1        0.2189
      2 O          21.6608   70.7133   -2.4022 O.3     1  UNL1       -0.4371
      3 O          24.1954   70.9461   -3.0649 O.2     1  UNL1       -0.5170
      4 O          23.1937   72.0960   -0.9081 O.3     1  UNL1       -0.3112
      5 C          22.1706   72.8759   -0.3129 C.3     1  UNL1        0.1811
      6 O          22.6741   71.3258    1.4529 O.3     1  UNL1       -0.3308
      7 O          20.1923   72.3389    2.7965 O.3     1  UNL1       -0.3794
      8 O          22.1717   73.6596    4.1281 O.3     1  UNL1       -0.3779
      9 C          21.1475   73.0499    2.0092 C.3     1  UNL1        0.1713
     10 C          22.4235   73.2615    2.7963 C.3     1  UNL1        0.1895
     11 C          21.6128   72.1280    0.8897 C.3     1  UNL1        0.1764
     12 C          23.0786   71.8935    2.7096 C.3     1  UNL1        0.2383
     13 H          19.4088   72.1928    2.2394 H       1  UNL1        0.2105
     14 H          21.6565   74.4840    4.0948 H       1  UNL1        0.2106
     15 O          24.8045   69.7194    2.1903 O.2     1  UNL1       -0.2464
     16 O          28.5601   72.2965    2.8922 O.2     1  UNL1       -0.2670
     17 N          24.5111   71.9682    2.7491 N.ar    1  UNL1       -0.2551
     18 N          26.6735   71.0040    2.5407 N.ar    1  UNL1       -0.2743
     19 C          25.2864   70.8178    2.4732 C.ar    1  UNL1        0.3323
     20 C          25.1342   73.1721    3.0588 C.ar    1  UNL1        0.0869
     21 C          26.4579   73.3336    3.1186 C.ar    1  UNL1        0.0795
     22 C          27.3392   72.1813    2.8448 C.ar    1  UNL1        0.2626
     23 H          27.2508   70.1903    2.3466 H       1  UNL1        0.1734
     24 O          22.5179   72.9609   -3.1886 O.3     1  UNL1       -0.2703
     25 P          22.0752   73.2218   -4.7211 P.3     1  UNL1        0.2208
     26 O          23.1278   72.3324   -5.5679 O.3     1  UNL1       -0.4371
     27 O          22.0330   74.6714   -5.1118 O.2     1  UNL1       -0.5170
     28 O          20.6679   72.4479   -4.8775 O.3     1  UNL1       -0.2858
     29 O          19.8330   70.2569   -5.1968 O.3     1  UNL1       -0.3226
     30 O          17.8099   72.3961   -8.1312 O.3     1  UNL1       -0.3794
     31 O          20.6300   72.9149   -7.5984 O.3     1  UNL1       -0.3775
     32 O          17.7040   69.8450   -7.0773 O.3     1  UNL1       -0.3792
     33 C          18.4423   72.1366   -6.8810 C.3     1  UNL1        0.1718
     34 C          19.9201   71.7898   -7.0913 C.3     1  UNL1        0.1968
     35 C          17.7235   70.9718   -6.1947 C.3     1  UNL1        0.1723
     36 C          20.5660   71.3425   -5.7741 C.3     1  UNL1        0.2706
     37 C          18.4723   70.5854   -4.9211 C.3     1  UNL1        0.1830
     38 H          16.8783   72.6081   -7.9503 H       1  UNL1        0.2105
     39 H          21.5594   72.6512   -7.7060 H       1  UNL1        0.2106
     40 H          18.5971   69.4622   -7.1092 H       1  UNL1        0.2106
     41 O          18.5284   69.0644   -3.1358 O.co2   1  UNL1       -0.5466
     42 O          16.9375   68.7308   -4.7342 O.co2   1  UNL1       -0.5466
     43 C          17.8796   69.3680   -4.2858 C.2     1  UNL1        0.0799
@<TRIPOS>UNITY_ATOM_ATTR
41 1
charge -1
@<TRIPOS>BOND
     1     1     4    1
     2     1    24    1
     3     1     2    1
     4     1     3    2
     5    25    28    1
     6    25    24    1
     7    25    26    1
     8    25    27    2
     9     6    11    1
    10     6    12    1
    11    29    36    1
    12    29    37    1
    13     7     9    1
    14     7    13    1
    15     8    10    1
    16     8    14    1
    17     4     5    1
    18    28    36    1
    19    30    33    1
    20    30    38    1
    21    31    34    1
    22    31    39    1
    23    32    35    1
    24    32    40    1
    25    41    43   ar
    26    15    19    2
    27    42    43   ar
    28    16    22    2
    29    17    12    1
    30    17    19   ar
    31    17    20   ar
    32    18    19   ar
    33    18    22   ar
    34    18    23    1
    35     9    10    1
    36     9    11    1
    37    10    12    1
    38    11     5    1
    39    33    34    1
    40    33    35    1
    41    34    36    1
    42    35    37    1
    43    37    43    1
    44    20    21   ar
    45    21    22   ar
@<TRIPOS>MOLECULE
UDP-glaA
 43 45 0 0 0
SMALL
GASTEIGER

@<TRIPOS>ATOM
      1 P          15.7836   70.3961   -2.3641 P.3     1  UNL1        0.2189
      2 O          14.9014   71.6536   -2.8719 O.3     1  UNL1       -0.4371
      3 O          15.8148   69.2250   -3.3019 O.2     1  UNL1       -0.5170
      4 O          15.2139   70.0940   -0.8810 O.3     1  UNL1       -0.3112
      5 C          14.4419   68.9228   -0.6774 C.3     1  UNL1        0.1811
      6 O          12.2179   68.1793   -0.1529 O.3     1  UNL1       -0.3308
      7 O          11.4253   71.0688   -0.2708 O.3     1  UNL1       -0.3794
      8 O          11.6245   70.6149    2.4106 O.3     1  UNL1       -0.3779
      9 C          12.6374   70.4834    0.2044 C.3     1  UNL1        0.1713
     10 C          12.4094   69.8198    1.5461 C.3     1  UNL1        0.1895
     11 C          12.9658   69.2936   -0.6879 C.3     1  UNL1        0.1764
     12 C          11.7134   68.5300    1.1462 C.3     1  UNL1        0.2383
     13 H          11.6102   71.4464   -1.1477 H       1  UNL1        0.2105
     14 H          12.0867   71.4625    2.5289 H       1  UNL1        0.2106
     15 O          14.3024   67.6500    1.8517 O.2     1  UNL1       -0.2464
     16 O          12.6313   64.3955    4.6543 O.2     1  UNL1       -0.2670
     17 N          11.9840   67.4555    2.0581 N.ar    1  UNL1       -0.2551
     18 N          13.4686   66.0296    3.2464 N.ar    1  UNL1       -0.2743
     19 C          13.3206   67.0914    2.3442 C.ar    1  UNL1        0.3323
     20 C          10.9312   66.7741    2.6586 C.ar    1  UNL1        0.0869
     21 C          11.0887   65.7642    3.5172 C.ar    1  UNL1        0.0795
     22 C          12.4524   65.3213    3.8688 C.ar    1  UNL1        0.2626
     23 H          14.4207   65.7503    3.4665 H       1  UNL1        0.1734
     24 O          17.2277   71.0619   -2.0698 O.3     1  UNL1       -0.2703
     25 P          18.7113   70.6283   -2.5424 P.3     1  UNL1        0.2208
     26 O          18.5650   69.0404   -2.8137 O.3     1  UNL1       -0.4371
     27 O          19.7982   70.9940   -1.5726 O.2     1  UNL1       -0.5170
     28 O          18.8798   71.2794   -4.0093 O.3     1  UNL1       -0.2858
     29 O          18.2938   69.9579   -5.8827 O.3     1  UNL1       -0.3226
     30 O          20.4711   73.0354   -7.6344 O.3     1  UNL1       -0.3794
     31 O          21.3438   71.8496   -5.1168 O.3     1  UNL1       -0.3775
     32 O          18.9195   70.9252   -8.5117 O.3     1  UNL1       -0.3792
     33 C          19.5942   72.3912   -6.7143 C.3     1  UNL1        0.1718
     34 C          20.3362   71.2885   -5.9515 C.3     1  UNL1        0.1968
     35 C          18.4174   71.7915   -7.4888 C.3     1  UNL1        0.1723
     36 C          19.3635   70.4777   -5.0861 C.3     1  UNL1        0.2706
     37 C          17.5411   70.9760   -6.5406 C.3     1  UNL1        0.1830
     38 H          19.9597   73.7222   -8.0952 H       1  UNL1        0.2105
     39 H          21.7784   71.1170   -4.6486 H       1  UNL1        0.2106
     40 H          19.2450   70.1100   -8.0937 H       1  UNL1        0.2106
     41 O          16.0305   69.1815   -6.5818 O.co2   1  UNL1       -0.5466
     42 O          15.9948   70.6096   -8.3584 O.co2   1  UNL1       -0.5466
     43 C          16.4512   70.2651   -7.2778 C.2     1  UNL1        0.0799
@<TRIPOS>UNITY_ATOM_ATTR
41 1
charge -1
@<TRIPOS>BOND
     1     1     4    1
     2     1    24    1
     3     1     2    1
     4     1     3    2
     5    25    28    1
     6    25    24    1
     7    25    26    1
     8    25    27    2
     9     6    11    1
    10     6    12    1
    11    29    36    1
    12    29    37    1
    13     7     9    1
    14     7    13    1
    15     8    10    1
    16     8    14    1
    17     4     5    1
    18    28    36    1
    19    30    33    1
    20    30    38    1
    21    31    34    1
    22    31    39    1
    23    32    35    1
    24    32    40    1
    25    41    43   ar
    26    15    19    2
    27    42    43   ar
    28    16    22    2
    29    17    12    1
    30    17    19   ar
    31    17    20   ar
    32    18    19   ar
    33    18    22   ar
    34    18    23    1
    35     9    10    1
    36     9    11    1
    37    10    12    1
    38    11     5    1
    39    33    34    1
    40    33    35    1
    41    34    36    1
    42    35    37    1
    43    37    43    1
    44    20    21   ar
    45    21    22   ar
@<TRIPOS>MOLECULE
UDP-glaA
 43 45 0 0 0
SMALL
GASTEIGER

@<TRIPOS>ATOM
      1 P          23.0565   71.3543   -2.1946 P.3     1  UNL1        0.2189
      2 O          22.7006   72.9314   -2.2518 O.3     1  UNL1       -0.4371
      3 O          24.1847   70.9272   -3.0873 O.2     1  UNL1       -0.5170
      4 O          21.6373   70.6247   -2.4574 O.3     1  UNL1       -0.3112
      5 C          20.9731   70.8583   -3.6876 C.3     1  UNL1        0.1811
      6 O          18.9445   71.7549   -4.6124 O.3     1  UNL1       -0.3308
      7 O          17.5344   70.4249   -2.3246 O.3     1  UNL1       -0.3794
      8 O          17.0738   68.7042   -4.3892 O.3     1  UNL1       -0.3779
      9 C          18.6680   69.9791   -3.0687 C.3     1  UNL1        0.1713
     10 C          18.2406   69.4989   -4.4396 C.3     1  UNL1        0.1895
     11 C          19.5160   71.1979   -3.4081 C.3     1  UNL1        0.1764
     12 C          18.0240   70.8081   -5.1794 C.3     1  UNL1        0.2383
     13 H          17.8607   70.7586   -1.4714 H       1  UNL1        0.2105
     14 H          17.2613   67.9453   -3.8104 H       1  UNL1        0.2106
     15 O          16.1316   69.9224   -7.0793 O.2     1  UNL1       -0.2464
     16 O          19.1232   70.3993  -10.5522 O.2     1  UNL1       -0.2670
     17 N          18.2811   70.6917   -6.5864 N.ar    1  UNL1       -0.2551
     18 N          17.6227   70.1600   -8.8074 N.ar    1  UNL1       -0.2743
     19 C          17.2625   70.2358   -7.4555 C.ar    1  UNL1        0.3323
     20 C          19.5320   71.0273   -7.0925 C.ar    1  UNL1        0.0869
     21 C          19.8598   70.9500   -8.3842 C.ar    1  UNL1        0.0795
     22 C          18.8535   70.4823   -9.3580 C.ar    1  UNL1        0.2626
     23 H          16.9062   69.8341   -9.4505 H       1  UNL1        0.1734
     24 O          23.3106   71.0971   -0.6183 O.3     1  UNL1       -0.2703
     25 P          22.3049   71.1771    0.6446 P.3     1  UNL1        0.2208
     26 O          23.2581   70.8186    1.9012 O.3     1  UNL1       -0.4371
     27 O          21.0890   70.3044    0.5199 O.2     1  UNL1       -0.5170
     28 O          21.9827   72.7494    0.8118 O.3     1  UNL1       -0.2858
     29 O          22.7582   74.7356    1.8381 O.3     1  UNL1       -0.3226
     30 O          18.8750   74.4607    3.2958 O.3     1  UNL1       -0.3794
     31 O          20.5456   72.0806    3.0724 O.3     1  UNL1       -0.3775
     32 O          20.9088   76.3291    3.3478 O.3     1  UNL1       -0.3792
     33 C          19.9560   74.3333    2.3763 C.3     1  UNL1        0.1718
     34 C          21.0379   73.4107    2.9480 C.3     1  UNL1        0.1968
     35 C          20.5415   75.7217    2.1048 C.3     1  UNL1        0.1723
     36 C          22.2779   73.4032    2.0454 C.3     1  UNL1        0.2706
     37 C          21.7893   75.5912    1.2341 C.3     1  UNL1        0.1830
     38 H          18.2169   75.0536    2.8945 H       1  UNL1        0.2105
     39 H          21.2660   71.5332    3.4279 H       1  UNL1        0.2106
     40 H          21.7149   75.8965    3.6767 H       1  UNL1        0.2106
     41 O          21.9485   77.5733   -0.0108 O.co2   1  UNL1       -0.5466
     42 O          23.3683   77.3412    1.7576 O.co2   1  UNL1       -0.5466
     43 C          22.4689   76.9108    1.0503 C.2     1  UNL1        0.0799
@<TRIPOS>UNITY_ATOM_ATTR
41 1
charge -1
@<TRIPOS>BOND
     1     1     4    1
     2     1    24    1
     3     1     2    1
     4     1     3    2
     5    25    28    1
     6    25    24    1
     7    25    26    1
     8    25    27    2
     9     6    11    1
    10     6    12    1
    11    29    36    1
    12    29    37    1
    13     7     9    1
    14     7    13    1
    15     8    10    1
    16     8    14    1
    17     4     5    1
    18    28    36    1
    19    30    33    1
    20    30    38    1
    21    31    34    1
    22    31    39    1
    23    32    35    1
    24    32    40    1
    25    41    43   ar
    26    15    19    2
    27    42    43   ar
    28    16    22    2
    29    17    12    1
    30    17    19   ar
    31    17    20   ar
    32    18    19   ar
    33    18    22   ar
    34    18    23    1
    35     9    10    1
    36     9    11    1
    37    10    12    1
    38    11     5    1
    39    33    34    1
    40    33    35    1
    41    34    36    1
    42    35    37    1
    43    37    43    1
    44    20    21   ar
    45    21    22   ar
@<TRIPOS>MOLECULE
UDP-glaA
 43 45 0 0 0
SMALL
GASTEIGER

@<TRIPOS>ATOM
      1 P          22.4198   71.6944   -3.0599 P.3     1  UNL1        0.2189
      2 O          22.7435   73.2155   -3.5059 O.3     1  UNL1       -0.4371
      3 O          23.6204   70.8034   -2.9314 O.2     1  UNL1       -0.5170
      4 O          21.2945   71.2098   -4.1156 O.3     1  UNL1       -0.3112
      5 C          20.4135   70.1665   -3.7354 C.3     1  UNL1        0.1811
      6 O          18.6708   71.4497   -4.7797 O.3     1  UNL1       -0.3308
      7 O          16.8263   70.2570   -2.7385 O.3     1  UNL1       -0.3794
      8 O          16.3070   68.7596   -4.9575 O.3     1  UNL1       -0.3779
      9 C          17.9424   69.6647   -3.4028 C.3     1  UNL1        0.1713
     10 C          17.5882   69.3428   -4.8393 C.3     1  UNL1        0.1895
     11 C          19.0117   70.7361   -3.5707 C.3     1  UNL1        0.1764
     12 C          17.6710   70.7089   -5.4988 C.3     1  UNL1        0.2383
     13 H          17.1115   70.4812   -1.8364 H       1  UNL1        0.2105
     14 H          16.3039   67.9486   -4.4206 H       1  UNL1        0.2106
     15 O          15.8821   70.1837   -7.6199 O.2     1  UNL1       -0.2464
     16 O          19.2472   70.4223  -10.7596 O.2     1  UNL1       -0.2670
     17 N          18.0523   70.6288   -6.8799 N.ar    1  UNL1       -0.2551
     18 N          17.5590   70.3023   -9.1819 N.ar    1  UNL1       -0.2743
     19 C          17.0764   70.3591   -7.8677 C.ar    1  UNL1        0.3323
     20 C          19.3810   70.8163   -7.2442 C.ar    1  UNL1        0.0869
     21 C          19.8253   70.7596   -8.5017 C.ar    1  UNL1        0.0795
     22 C          18.8707   70.4817   -9.5931 C.ar    1  UNL1        0.2626
     23 H          16.8752   70.1090   -9.9086 H       1  UNL1        0.1734
     24 O          21.5763   71.8891   -1.6939 O.3     1  UNL1       -0.2703
     25 P          21.3148   73.2013   -0.7871 P.3     1  UNL1        0.2208
     26 O          19.8202   72.9656   -0.2156 O.3     1  UNL1       -0.4371
     27 O          21.5020   74.5010   -1.5161 O.2     1  UNL1       -0.5170
     28 O          22.2768   73.0111    0.4944 O.3     1  UNL1       -0.2858
     29 O          24.3273   74.0634    1.0308 O.3     1  UNL1       -0.3226
     30 O          24.8278   70.2843    2.6884 O.3     1  UNL1       -0.3794
     31 O          23.5613   70.6025    0.0806 O.3     1  UNL1       -0.3775
     32 O          26.1895   72.6873    2.7270 O.3     1  UNL1       -0.3792
     33 C          24.1539   71.4689    2.2726 C.3     1  UNL1        0.1718
     34 C          24.2642   71.6414    0.7539 C.3     1  UNL1        0.1968
     35 C          24.7814   72.6711    2.9834 C.3     1  UNL1        0.1723
     36 C          23.6927   72.9964    0.3182 C.3     1  UNL1        0.2706
     37 C          24.1691   73.9625    2.4452 C.3     1  UNL1        0.1830
     38 H          24.7343   70.2172    3.6540 H       1  UNL1        0.2105
     39 H          23.6512   70.7587   -0.8746 H       1  UNL1        0.2106
     40 H          26.3331   72.9737    1.8091 H       1  UNL1        0.2106
     41 O          25.3169   74.9068    4.2603 O.co2   1  UNL1       -0.5466
     42 O          24.9595   76.2440    2.4489 O.co2   1  UNL1       -0.5466
     43 C          24.8438   75.1682    3.0180 C.2     1  UNL1        0.0799
@<TRIPOS>UNITY_ATOM_ATTR
41 1
charge -1
@<TRIPOS>BOND
     1     1     4    1
     2     1    24    1
     3     1     2    1
     4     1     3    2
     5    25    28    1
     6    25    24    1
     7    25    26    1
     8    25    27    2
     9     6    11    1
    10     6    12    1
    11    29    36    1
    12    29    37    1
    13     7     9    1
    14     7    13    1
    15     8    10    1
    16     8    14    1
    17     4     5    1
    18    28    36    1
    19    30    33    1
    20    30    38    1
    21    31    34    1
    22    31    39    1
    23    32    35    1
    24    32    40    1
    25    41    43   ar
    26    15    19    2
    27    42    43   ar
    28    16    22    2
    29    17    12    1
    30    17    19   ar
    31    17    20   ar
    32    18    19   ar
    33    18    22   ar
    34    18    23    1
    35     9    10    1
    36     9    11    1
    37    10    12    1
    38    11     5    1
    39    33    34    1
    40    33    35    1
    41    34    36    1
    42    35    37    1
    43    37    43    1
    44    20    21   ar
    45    21    22   ar
@<TRIPOS>MOLECULE
UDP-glaA
 43 45 0 0 0
SMALL
GASTEIGER

@<TRIPOS>ATOM
      1 P          22.1755   72.9639   -4.3454 P.3     1  UNL1        0.2189
      2 O          23.6365   72.4747   -4.8389 O.3     1  UNL1       -0.4371
      3 O          22.0473   74.4412   -4.1143 O.2     1  UNL1       -0.5170
      4 O          21.8602   72.0227   -3.0686 O.3     1  UNL1       -0.3112
      5 C          20.9036   70.9864   -3.2107 C.3     1  UNL1        0.1811
      6 O          20.3525   70.8651   -0.8749 O.3     1  UNL1       -0.3308
      7 O          17.9929   72.5942   -1.5334 O.3     1  UNL1       -0.3794
      8 O          19.7589   74.3776   -0.4673 O.3     1  UNL1       -0.3779
      9 C          19.3103   72.6167   -2.0825 C.3     1  UNL1        0.1713
     10 C          20.2817   73.2236   -1.0922 C.3     1  UNL1        0.1895
     11 C          19.8054   71.1793   -2.1746 C.3     1  UNL1        0.1764
     12 C          20.4960   72.0780   -0.1176 C.3     1  UNL1        0.2383
     13 H          17.4146   72.1628   -2.1853 H       1  UNL1        0.2105
     14 H          19.5475   75.0191   -1.1672 H       1  UNL1        0.2106
     15 O          21.6902   69.8848    1.2011 O.2     1  UNL1       -0.2464
     16 O          25.5052   72.2931    2.1416 O.2     1  UNL1       -0.2670
     17 N          21.8003   72.1038    0.4804 N.ar    1  UNL1       -0.2551
     18 N          23.5890   71.0857    1.6690 N.ar    1  UNL1       -0.2743
     19 C          22.3074   70.9483    1.1195 C.ar    1  UNL1        0.3323
     20 C          22.5629   73.2654    0.4305 C.ar    1  UNL1        0.0869
     21 C          23.7833   73.3803    0.9588 C.ar    1  UNL1        0.0795
     22 C          24.3855   72.2200    1.6449 C.ar    1  UNL1        0.2626
     23 H          23.9735   70.2677    2.1340 H       1  UNL1        0.1734
     24 O          21.1915   72.3725   -5.4843 O.3     1  UNL1       -0.2703
     25 P          20.7508   72.9709   -6.9197 P.3     1  UNL1        0.2208
     26 O          21.6328   72.1102   -7.9672 O.3     1  UNL1       -0.4371
     27 O          20.9173   74.4583   -7.0444 O.2     1  UNL1       -0.5170
     28 O          19.2388   72.4491   -7.1334 O.3     1  UNL1       -0.2858
     29 O          18.5081   70.5364   -5.9472 O.3     1  UNL1       -0.3226
     30 O          15.6202   70.8748   -8.9179 O.3     1  UNL1       -0.3794
     31 O          18.4347   71.3352   -9.5283 O.3     1  UNL1       -0.3775
     32 O          15.9859   69.3549   -6.6406 O.3     1  UNL1       -0.3792
     33 C          16.5835   71.2919   -7.9543 C.3     1  UNL1        0.1718
     34 C          17.9706   70.7503   -8.3161 C.3     1  UNL1        0.1968
     35 C          16.1619   70.7739   -6.5764 C.3     1  UNL1        0.1723
     36 C          18.9783   71.0477   -7.1988 C.3     1  UNL1        0.2706
     37 C          17.2523   71.0881   -5.5545 C.3     1  UNL1        0.1830
     38 H          14.7593   71.2375   -8.6480 H       1  UNL1        0.2105
     39 H          19.3170   70.9704   -9.7110 H       1  UNL1        0.2106
     40 H          16.8622   68.9367   -6.6879 H       1  UNL1        0.2106
     41 O          17.4647   69.2403   -4.1247 O.co2   1  UNL1       -0.5466
     42 O          16.3076   71.0379   -3.3330 O.co2   1  UNL1       -0.5466
     43 C          16.9420   70.4865   -4.2207 C.2     1  UNL1        0.0799
@<TRIPOS>UNITY_ATOM_ATTR
41 1
charge -1
@<TRIPOS>BOND
     1     1     4    1
     2     1    24    1
     3     1     2    1
     4     1     3    2
     5    25    28    1
     6    25    24    1
     7    25    26    1
     8    25    27    2
     9     6    11    1
    10     6    12    1
    11    29    36    1
    12    29    37    1
    13     7     9    1
    14     7    13    1
    15     8    10    1
    16     8    14    1
    17     4     5    1
    18    28    36    1
    19    30    33    1
    20    30    38    1
    21    31    34    1
    22    31    39    1
    23    32    35    1
    24    32    40    1
    25    41    43   ar
    26    15    19    2
    27    42    43   ar
    28    16    22    2
    29    17    12    1
    30    17    19   ar
    31    17    20   ar
    32    18    19   ar
    33    18    22   ar
    34    18    23    1
    35     9    10    1
    36     9    11    1
    37    10    12    1
    38    11     5    1
    39    33    34    1
    40    33    35    1
    41    34    36    1
    42    35    37    1
    43    37    43    1
    44    20    21   ar
    45    21    22   ar
@<TRIPOS>MOLECULE
UDP-glaA
 43 45 0 0 0
SMALL
GASTEIGER

@<TRIPOS>ATOM
      1 P          21.1921   73.8289   -5.2929 P.3     1  UNL1        0.2189
      2 O          19.7855   74.5425   -4.9331 O.3     1  UNL1       -0.4371
      3 O          22.1275   74.6569   -6.1245 O.2     1  UNL1       -0.5170
      4 O          20.7564   72.4076   -5.9298 O.3     1  UNL1       -0.3112
      5 C          20.6181   72.3098   -7.3371 C.3     1  UNL1        0.1811
      6 O          19.4664   70.3425   -6.5773 O.3     1  UNL1       -0.3308
      7 O          19.3428   69.5288   -9.4607 O.3     1  UNL1       -0.3794
      8 O          16.8379   70.5079   -9.0104 O.3     1  UNL1       -0.3779
      9 C          19.2443   70.8312   -8.8848 C.3     1  UNL1        0.1713
     10 C          17.8955   71.0110   -8.2205 C.3     1  UNL1        0.1895
     11 C          20.1953   70.8926   -7.6968 C.3     1  UNL1        0.1764
     12 C          18.0759   70.2380   -6.9252 C.3     1  UNL1        0.2383
     13 H          20.2347   69.4459   -9.8391 H       1  UNL1        0.2105
     14 H          16.8589   70.9782   -9.8616 H       1  UNL1        0.2106
     15 O          16.6859   68.6686   -5.0331 O.2     1  UNL1       -0.2464
     16 O          15.0700   72.3958   -2.8570 O.2     1  UNL1       -0.2670
     17 N          17.2849   70.7718   -5.8535 N.ar    1  UNL1       -0.2551
     18 N          15.8817   70.5256   -3.9511 N.ar    1  UNL1       -0.2743
     19 C          16.6262   69.8972   -4.9580 C.ar    1  UNL1        0.3323
     20 C          17.1675   72.1485   -5.6978 C.ar    1  UNL1        0.0869
     21 C          16.4542   72.7323   -4.7323 C.ar    1  UNL1        0.0795
     22 C          15.7348   71.8902   -3.7561 C.ar    1  UNL1        0.2626
     23 H          15.3991   69.9164   -3.2960 H       1  UNL1        0.1734
     24 O          21.7699   73.4141   -3.8406 O.3     1  UNL1       -0.2703
     25 P          22.8473   72.2887   -3.4100 P.3     1  UNL1        0.2208
     26 O          24.0413   72.4885   -4.4826 O.3     1  UNL1       -0.4371
     27 O          22.2921   70.8944   -3.3529 O.2     1  UNL1       -0.5170
     28 O          23.4587   72.8206   -2.0145 O.3     1  UNL1       -0.2858
     29 O          22.2027   72.6081   -0.0203 O.3     1  UNL1       -0.3226
     30 O          25.0331   75.4644    1.0331 O.3     1  UNL1       -0.3794
     31 O          23.7667   75.5317   -1.5933 O.3     1  UNL1       -0.3775
     32 O          23.0952   73.9869    2.3336 O.3     1  UNL1       -0.3792
     33 C          24.4855   74.3189    0.3864 C.3     1  UNL1        0.1718
     34 C          23.3126   74.7227   -0.5133 C.3     1  UNL1        0.1968
     35 C          24.0108   73.3279    1.4526 C.3     1  UNL1        0.1723
     36 C          22.6092   73.4824   -1.0783 C.3     1  UNL1        0.2706
     37 C          23.2928   72.1583    0.7828 C.3     1  UNL1        0.1830
     38 H          25.7688   75.1619    1.5923 H       1  UNL1        0.2105
     39 H          22.9934   75.7540   -2.1387 H       1  UNL1        0.2106
     40 H          22.2511   74.1090    1.8668 H       1  UNL1        0.2106
     41 O          21.7551   70.4421    1.2234 O.co2   1  UNL1       -0.5466
     42 O          23.0168   71.1799    2.9729 O.co2   1  UNL1       -0.5466
     43 C          22.6985   71.2298    1.7936 C.2     1  UNL1        0.0799
@<TRIPOS>UNITY_ATOM_ATTR
41 1
charge -1
@<TRIPOS>BOND
     1     1     4    1
     2     1    24    1
     3     1     2    1
     4     1     3    2
     5    25    28    1
     6    25    24    1
     7    25    26    1
     8    25    27    2
     9     6    11    1
    10     6    12    1
    11    29    36    1
    12    29    37    1
    13     7     9    1
    14     7    13    1
    15     8    10    1
    16     8    14    1
    17     4     5    1
    18    28    36    1
    19    30    33    1
    20    30    38    1
    21    31    34    1
    22    31    39    1
    23    32    35    1
    24    32    40    1
    25    41    43   ar
    26    15    19    2
    27    42    43   ar
    28    16    22    2
    29    17    12    1
    30    17    19   ar
    31    17    20   ar
    32    18    19   ar
    33    18    22   ar
    34    18    23    1
    35     9    10    1
    36     9    11    1
    37    10    12    1
    38    11     5    1
    39    33    34    1
    40    33    35    1
    41    34    36    1
    42    35    37    1
    43    37    43    1
    44    20    21   ar
    45    21    22   ar
@<TRIPOS>MOLECULE
UDP-glaA
 43 45 0 0 0
SMALL
GASTEIGER

@<TRIPOS>ATOM
      1 P          15.7683   70.2630   -2.3661 P.3     1  UNL1        0.2189
      2 O          14.8282   71.5201   -2.7578 O.3     1  UNL1       -0.4371
      3 O          15.7184   69.1116   -3.3273 O.2     1  UNL1       -0.5170
      4 O          15.3504   69.9242   -0.8410 O.3     1  UNL1       -0.3112
      5 C          14.2399   69.0723   -0.6162 C.3     1  UNL1        0.1811
      6 O          11.9273   69.5640   -1.0455 O.3     1  UNL1       -0.3308
      7 O          11.8759   70.7979    1.6870 O.3     1  UNL1       -0.3794
      8 O          10.7178   68.3657    2.1099 O.3     1  UNL1       -0.3779
      9 C          12.5861   69.6476    1.2286 C.3     1  UNL1        0.1713
     10 C          11.6361   68.4833    1.0430 C.3     1  UNL1        0.1895
     11 C          13.0438   69.9161   -0.1990 C.3     1  UNL1        0.1764
     12 C          10.9613   68.8330   -0.2724 C.3     1  UNL1        0.2383
     13 H          12.5165   71.5264    1.7536 H       1  UNL1        0.2105
     14 H          11.2322   68.2529    2.9278 H       1  UNL1        0.2106
     15 O          11.9993   66.2406    0.1491 O.2     1  UNL1       -0.2464
     16 O           9.3422   64.4406   -3.1582 O.2     1  UNL1       -0.2670
     17 N          10.5584   67.6688   -1.0084 N.ar    1  UNL1       -0.2551
     18 N          10.6759   65.3461   -1.4985 N.ar    1  UNL1       -0.2743
     19 C          11.1422   66.4132   -0.7194 C.ar    1  UNL1        0.3323
     20 C           9.5947   67.7777   -2.0048 C.ar    1  UNL1        0.0869
     21 C           9.1603   66.7507   -2.7386 C.ar    1  UNL1        0.0795
     22 C           9.7197   65.4053   -2.5005 C.ar    1  UNL1        0.2626
     23 H          11.0820   64.4339   -1.3085 H       1  UNL1        0.1734
     24 O          17.2278   70.9397   -2.2009 O.3     1  UNL1       -0.2703
     25 P          18.6957   70.4103   -2.6223 P.3     1  UNL1        0.2208
     26 O          18.4142   68.9005   -3.1297 O.3     1  UNL1       -0.4371
     27 O          19.7249   70.5167   -1.5336 O.2     1  UNL1       -0.5170
     28 O          19.0569   71.2313   -3.9637 O.3     1  UNL1       -0.2858
     29 O          18.4818   70.0330   -5.9214 O.3     1  UNL1       -0.3226
     30 O          20.4990   73.3197   -7.4731 O.3     1  UNL1       -0.3794
     31 O          21.4720   71.9829   -5.0706 O.3     1  UNL1       -0.3775
     32 O          19.0117   71.2211   -8.4800 O.3     1  UNL1       -0.3792
     33 C          19.6681   72.5728   -6.5887 C.3     1  UNL1        0.1718
     34 C          20.4689   71.4464   -5.9267 C.3     1  UNL1        0.1968
     35 C          18.4988   71.9865   -7.3845 C.3     1  UNL1        0.1723
     36 C          19.5476   70.5338   -5.1077 C.3     1  UNL1        0.2706
     37 C          17.6759   71.0667   -6.4851 C.3     1  UNL1        0.1830
     38 H          19.9513   74.0182   -7.8703 H       1  UNL1        0.2105
     39 H          21.9449   71.2351   -4.6681 H       1  UNL1        0.2106
     40 H          19.3777   70.3905   -8.1319 H       1  UNL1        0.2106
     41 O          16.1674   69.2728   -6.5865 O.co2   1  UNL1       -0.5466
     42 O          16.1594   70.7361   -8.3346 O.co2   1  UNL1       -0.5466
     43 C          16.5985   70.3703   -7.2539 C.2     1  UNL1        0.0799
@<TRIPOS>UNITY_ATOM_ATTR
41 1
charge -1
@<TRIPOS>BOND
     1     1     4    1
     2     1    24    1
     3     1     2    1
     4     1     3    2
     5    25    28    1
     6    25    24    1
     7    25    26    1
     8    25    27    2
     9     6    11    1
    10     6    12    1
    11    29    36    1
    12    29    37    1
    13     7     9    1
    14     7    13    1
    15     8    10    1
    16     8    14    1
    17     4     5    1
    18    28    36    1
    19    30    33    1
    20    30    38    1
    21    31    34    1
    22    31    39    1
    23    32    35    1
    24    32    40    1
    25    41    43   ar
    26    15    19    2
    27    42    43   ar
    28    16    22    2
    29    17    12    1
    30    17    19   ar
    31    17    20   ar
    32    18    19   ar
    33    18    22   ar
    34    18    23    1
    35     9    10    1
    36     9    11    1
    37    10    12    1
    38    11     5    1
    39    33    34    1
    40    33    35    1
    41    34    36    1
    42    35    37    1
    43    37    43    1
    44    20    21   ar
    45    21    22   ar
@<TRIPOS>MOLECULE
UDP-glaA
 43 45 0 0 0
SMALL
GASTEIGER

@<TRIPOS>ATOM
      1 P          22.4112   75.2441   -5.2986 P.3     1  UNL1        0.2189
      2 O          21.8485   76.7527   -5.1411 O.3     1  UNL1       -0.4371
      3 O          23.4271   75.0579   -6.3874 O.2     1  UNL1       -0.5170
      4 O          21.0754   74.3407   -5.4217 O.3     1  UNL1       -0.3112
      5 C          21.1140   73.0060   -4.9460 C.3     1  UNL1        0.1811
      6 O          20.5105   70.8175   -5.7336 O.3     1  UNL1       -0.3308
      7 O          20.8392   71.9269   -8.4999 O.3     1  UNL1       -0.3794
      8 O          18.1333   71.9577   -8.1637 O.3     1  UNL1       -0.3779
      9 C          20.3340   72.5627   -7.3259 C.3     1  UNL1        0.1713
     10 C          18.9433   72.0539   -7.0103 C.3     1  UNL1        0.1895
     11 C          21.1367   72.0560   -6.1349 C.3     1  UNL1        0.1764
     12 C          19.2364   70.6994   -6.3879 C.3     1  UNL1        0.2383
     13 H          21.7442   72.2540   -8.6400 H       1  UNL1        0.2105
     14 H          18.0849   72.8438   -8.5620 H       1  UNL1        0.2106
     15 O          16.7221   69.5859   -7.0311 O.2     1  UNL1       -0.2464
     16 O          15.5239   69.2655   -2.5926 O.2     1  UNL1       -0.2670
     17 N          18.2484   70.3153   -5.4206 N.ar    1  UNL1       -0.2551
     18 N          16.1269   69.4276   -4.8205 N.ar    1  UNL1       -0.2743
     19 C          17.0170   69.7660   -5.8482 C.ar    1  UNL1        0.3323
     20 C          18.5038   70.4842   -4.0643 C.ar    1  UNL1        0.0869
     21 C          17.6450   70.1561   -3.0965 C.ar    1  UNL1        0.0795
     22 C          16.3359   69.5772   -3.4583 C.ar    1  UNL1        0.2626
     23 H          15.2349   69.0315   -5.1046 H       1  UNL1        0.1734
     24 O          22.9465   74.9000   -3.8119 O.3     1  UNL1       -0.2703
     25 P          24.2215   74.0385   -3.3171 P.3     1  UNL1        0.2208
     26 O          25.4201   75.1245   -3.3027 O.3     1  UNL1       -0.4371
     27 O          24.5003   72.8185   -4.1474 O.2     1  UNL1       -0.5170
     28 O          23.9288   73.7325   -1.7600 O.3     1  UNL1       -0.2858
     29 O          21.8298   72.9714   -0.9762 O.3     1  UNL1       -0.3226
     30 O          23.5017   74.6070    2.4602 O.3     1  UNL1       -0.3794
     31 O          23.7995   75.9453   -0.1139 O.3     1  UNL1       -0.3775
     32 O          21.2667   73.1091    1.8349 O.3     1  UNL1       -0.3792
     33 C          23.4477   73.9346    1.2051 C.3     1  UNL1        0.1718
     34 C          22.8983   74.8687    0.1216 C.3     1  UNL1        0.1968
     35 C          22.5475   72.7035    1.3411 C.3     1  UNL1        0.1723
     36 C          22.6751   74.1066   -1.1905 C.3     1  UNL1        0.2706
     37 C          22.3623   72.0495   -0.0264 C.3     1  UNL1        0.1830
     38 H          23.8521   73.9789    3.1146 H       1  UNL1        0.2105
     39 H          23.4151   76.5025   -0.8114 H       1  UNL1        0.2106
     40 H          20.7871   73.5576    1.1180 H       1  UNL1        0.2106
     41 O          21.5989   70.1624    1.1396 O.co2   1  UNL1       -0.5466
     42 O          20.5108   70.7009   -0.7899 O.co2   1  UNL1       -0.5466
     43 C          21.3858   70.9184    0.0357 C.2     1  UNL1        0.0799
@<TRIPOS>UNITY_ATOM_ATTR
41 1
charge -1
@<TRIPOS>BOND
     1     1     4    1
     2     1    24    1
     3     1     2    1
     4     1     3    2
     5    25    28    1
     6    25    24    1
     7    25    26    1
     8    25    27    2
     9     6    11    1
    10     6    12    1
    11    29    36    1
    12    29    37    1
    13     7     9    1
    14     7    13    1
    15     8    10    1
    16     8    14    1
    17     4     5    1
    18    28    36    1
    19    30    33    1
    20    30    38    1
    21    31    34    1
    22    31    39    1
    23    32    35    1
    24    32    40    1
    25    41    43   ar
    26    15    19    2
    27    42    43   ar
    28    16    22    2
    29    17    12    1
    30    17    19   ar
    31    17    20   ar
    32    18    19   ar
    33    18    22   ar
    34    18    23    1
    35     9    10    1
    36     9    11    1
    37    10    12    1
    38    11     5    1
    39    33    34    1
    40    33    35    1
    41    34    36    1
    42    35    37    1
    43    37    43    1
    44    20    21   ar
    45    21    22   ar
@<TRIPOS>MOLECULE
UDP-glaA
 43 45 0 0 0
SMALL
GASTEIGER

@<TRIPOS>ATOM
      1 P          22.8700   73.2147   -4.5112 P.3     1  UNL1        0.2189
      2 O          24.0594   72.1630   -4.2005 O.3     1  UNL1       -0.4371
      3 O          23.3154   74.5126   -5.1186 O.2     1  UNL1       -0.5170
      4 O          22.0763   73.3315   -3.1069 O.3     1  UNL1       -0.3112
      5 C          22.8003   73.1474   -1.9023 C.3     1  UNL1        0.1811
      6 O          23.5605   71.3253   -0.5324 O.3     1  UNL1       -0.3308
      7 O          20.6719   70.5665   -0.2654 O.3     1  UNL1       -0.3794
      8 O          21.1746   71.8366    2.0947 O.3     1  UNL1       -0.3779
      9 C          21.2621   71.8644   -0.3348 C.3     1  UNL1        0.1713
     10 C          21.9511   72.1985    0.9714 C.3     1  UNL1        0.1895
     11 C          22.4342   71.7961   -1.3050 C.3     1  UNL1        0.1764
     12 C          23.2355   71.3941    0.8657 C.3     1  UNL1        0.2383
     13 H          20.2776   70.3806   -1.1346 H       1  UNL1        0.2105
     14 H          20.3278   72.3108    2.0302 H       1  UNL1        0.2106
     15 O          25.1220   69.9852    2.4251 O.2     1  UNL1       -0.2464
     16 O          27.3761   73.8523    3.5220 O.2     1  UNL1       -0.2670
     17 N          24.3258   72.0073    1.5691 N.ar    1  UNL1       -0.2551
     18 N          26.2429   71.9118    2.9707 N.ar    1  UNL1       -0.2743
     19 C          25.2166   71.2098    2.3249 C.ar    1  UNL1        0.3323
     20 C          24.5040   73.3848    1.5062 C.ar    1  UNL1        0.0869
     21 C          25.4878   74.0393    2.1272 C.ar    1  UNL1        0.0795
     22 C          26.4606   73.2805    2.9381 C.ar    1  UNL1        0.2626
     23 H          26.8950   71.3589    3.5204 H       1  UNL1        0.1734
     24 O          21.8561   72.3536   -5.4308 O.3     1  UNL1       -0.2703
     25 P          20.7146   72.8217   -6.4751 P.3     1  UNL1        0.2208
     26 O          21.1468   72.0886   -7.8505 O.3     1  UNL1       -0.4371
     27 O          20.5575   74.3110   -6.5892 O.2     1  UNL1       -0.5170
     28 O          19.3822   72.0453   -5.9997 O.3     1  UNL1       -0.2858
     29 O          19.1957   69.9463   -4.9233 O.3     1  UNL1       -0.3226
     30 O          15.6638   70.1216   -7.1084 O.3     1  UNL1       -0.3794
     31 O          18.1733   71.0461   -8.2718 O.3     1  UNL1       -0.3775
     32 O          16.7454   68.4726   -5.1741 O.3     1  UNL1       -0.3792
     33 C          16.7703   70.5875   -6.3410 C.3     1  UNL1        0.1718
     34 C          18.0868   70.2918   -7.0675 C.3     1  UNL1        0.1968
     35 C          16.7562   69.8905   -4.9778 C.3     1  UNL1        0.1723
     36 C          19.2875   70.6325   -6.1761 C.3     1  UNL1        0.2706
     37 C          18.0118   70.2686   -4.1951 C.3     1  UNL1        0.1830
     38 H          14.8542   70.3271   -6.6105 H       1  UNL1        0.2105
     39 H          19.0244   70.8337   -8.6905 H       1  UNL1        0.2106
     40 H          17.6297   68.1946   -5.4671 H       1  UNL1        0.2106
     41 O          17.5877   68.2652   -3.0504 O.co2   1  UNL1       -0.5466
     42 O          18.5823   69.9439   -1.8715 O.co2   1  UNL1       -0.5466
     43 C          18.1045   69.5096   -2.9096 C.2     1  UNL1        0.0799
@<TRIPOS>UNITY_ATOM_ATTR
41 1
charge -1
@<TRIPOS>BOND
     1     1     4    1
     2     1    24    1
     3     1     2    1
     4     1     3    2
     5    25    28    1
     6    25    24    1
     7    25    26    1
     8    25    27    2
     9     6    11    1
    10     6    12    1
    11    29    36    1
    12    29    37    1
    13     7     9    1
    14     7    13    1
    15     8    10    1
    16     8    14    1
    17     4     5    1
    18    28    36    1
    19    30    33    1
    20    30    38    1
    21    31    34    1
    22    31    39    1
    23    32    35    1
    24    32    40    1
    25    41    43   ar
    26    15    19    2
    27    42    43   ar
    28    16    22    2
    29    17    12    1
    30    17    19   ar
    31    17    20   ar
    32    18    19   ar
    33    18    22   ar
    34    18    23    1
    35     9    10    1
    36     9    11    1
    37    10    12    1
    38    11     5    1
    39    33    34    1
    40    33    35    1
    41    34    36    1
    42    35    37    1
    43    37    43    1
    44    20    21   ar
    45    21    22   ar
@<TRIPOS>MOLECULE
UDP-glaA
 43 45 0 0 0
SMALL
GASTEIGER

@<TRIPOS>ATOM
      1 P          21.8509   72.5582   -5.6945 P.3     1  UNL1        0.2189
      2 O          21.3232   74.0525   -5.3686 O.3     1  UNL1       -0.4371
      3 O          22.9846   72.4871   -6.6752 O.2     1  UNL1       -0.5170
      4 O          20.5108   71.7536   -6.1097 O.3     1  UNL1       -0.3112
      5 C          19.9603   71.9732   -7.3973 C.3     1  UNL1        0.1811
      6 O          18.6649   70.0530   -6.7579 O.3     1  UNL1       -0.3308
      7 O          18.0628   69.7204   -9.6765 O.3     1  UNL1       -0.3794
      8 O          15.7898   70.8918   -8.7293 O.3     1  UNL1       -0.3779
      9 C          18.2137   70.9192   -8.9163 C.3     1  UNL1        0.1713
     10 C          16.9980   71.1429   -8.0418 C.3     1  UNL1        0.1895
     11 C          19.3098   70.6864   -7.8848 C.3     1  UNL1        0.1764
     12 C          17.2397   70.1611   -6.9079 C.3     1  UNL1        0.2383
     13 H          18.8795   69.5983  -10.1901 H       1  UNL1        0.2105
     14 H          15.7631   71.4843   -9.5002 H       1  UNL1        0.2106
     15 O          17.0172   68.5618   -4.5910 O.2     1  UNL1       -0.2464
     16 O          15.0405   71.9728   -2.2044 O.2     1  UNL1       -0.2670
     17 N          16.6718   70.6057   -5.6673 N.ar    1  UNL1       -0.2551
     18 N          16.0325   70.2612   -3.4043 N.ar    1  UNL1       -0.2743
     19 C          16.6064   69.7233   -4.5638 C.ar    1  UNL1        0.3323
     20 C          16.1865   71.9037   -5.5529 C.ar    1  UNL1        0.0869
     21 C          15.6426   72.4018   -4.4403 C.ar    1  UNL1        0.0795
     22 C          15.5358   71.5453   -3.2426 C.ar    1  UNL1        0.2626
     23 H          15.9745   69.6446   -2.5983 H       1  UNL1        0.1734
     24 O          22.1904   71.9661   -4.2284 O.3     1  UNL1       -0.2703
     25 P          23.3519   72.3512   -3.1724 P.3     1  UNL1        0.2208
     26 O          24.5649   72.8482   -4.1198 O.3     1  UNL1       -0.4371
     27 O          23.7174   71.2426   -2.2274 O.2     1  UNL1       -0.5170
     28 O          22.8204   73.6936   -2.4515 O.3     1  UNL1       -0.2858
     29 O          20.7349   72.9737   -1.5959 O.3     1  UNL1       -0.3226
     30 O          23.4116   70.6067    0.5282 O.3     1  UNL1       -0.3794
     31 O          23.9925   73.4216    0.0334 O.3     1  UNL1       -0.3775
     32 O          20.6717   70.7382    0.2033 O.3     1  UNL1       -0.3792
     33 C          22.8789   71.3465   -0.5669 C.3     1  UNL1        0.1718
     34 C          22.7200   72.8227   -0.1877 C.3     1  UNL1        0.1968
     35 C          21.5196   70.7548   -0.9498 C.3     1  UNL1        0.1723
     36 C          21.9901   73.5926   -1.2954 C.3     1  UNL1        0.2706
     37 C          20.8681   71.6200   -2.0264 C.3     1  UNL1        0.1830
     38 H          23.4925   69.6801    0.2445 H       1  UNL1        0.2105
     39 H          23.8422   74.3547    0.2606 H       1  UNL1        0.2106
     40 H          20.3838   71.6482    0.3881 H       1  UNL1        0.2106
     41 O          18.8832   71.9892   -3.2212 O.co2   1  UNL1       -0.5466
     42 O          18.9556   70.1545   -1.8700 O.co2   1  UNL1       -0.5466
     43 C          19.4820   71.1532   -2.3390 C.2     1  UNL1        0.0799
@<TRIPOS>UNITY_ATOM_ATTR
41 1
charge -1
@<TRIPOS>BOND
     1     1     4    1
     2     1    24    1
     3     1     2    1
     4     1     3    2
     5    25    28    1
     6    25    24    1
     7    25    26    1
     8    25    27    2
     9     6    11    1
    10     6    12    1
    11    29    36    1
    12    29    37    1
    13     7     9    1
    14     7    13    1
    15     8    10    1
    16     8    14    1
    17     4     5    1
    18    28    36    1
    19    30    33    1
    20    30    38    1
    21    31    34    1
    22    31    39    1
    23    32    35    1
    24    32    40    1
    25    41    43   ar
    26    15    19    2
    27    42    43   ar
    28    16    22    2
    29    17    12    1
    30    17    19   ar
    31    17    20   ar
    32    18    19   ar
    33    18    22   ar
    34    18    23    1
    35     9    10    1
    36     9    11    1
    37    10    12    1
    38    11     5    1
    39    33    34    1
    40    33    35    1
    41    34    36    1
    42    35    37    1
    43    37    43    1
    44    20    21   ar
    45    21    22   ar
@<TRIPOS>MOLECULE
UDP-glaA
 43 45 0 0 0
SMALL
GASTEIGER

@<TRIPOS>ATOM
      1 P          15.8199   70.3555   -2.7334 P.3     1  UNL1        0.2189
      2 O          14.9246   71.6398   -3.1414 O.3     1  UNL1       -0.4371
      3 O          15.6714   69.1673   -3.6379 O.2     1  UNL1       -0.5170
      4 O          15.4554   70.1047   -1.1778 O.3     1  UNL1       -0.3112
      5 C          14.3494   69.2745   -0.8666 C.3     1  UNL1        0.1811
      6 O          12.0176   69.7828   -1.1471 O.3     1  UNL1       -0.3308
      7 O          12.1711   71.0927    1.5459 O.3     1  UNL1       -0.3794
      8 O          11.0201   68.6877    2.1182 O.3     1  UNL1       -0.3779
      9 C          12.8353   69.9213    1.0721 C.3     1  UNL1        0.1713
     10 C          11.8625   68.7642    0.9867 C.3     1  UNL1        0.1895
     11 C          13.1944   70.1444   -0.3911 C.3     1  UNL1        0.1764
     12 C          11.1006   69.0856   -0.2878 C.3     1  UNL1        0.2383
     13 H          12.8223   71.8148    1.5466 H       1  UNL1        0.2105
     14 H          11.5895   68.5913    2.9009 H       1  UNL1        0.2106
     15 O           9.1926   69.0846   -2.3698 O.2     1  UNL1       -0.2464
     16 O           9.3872   64.4996   -2.7930 O.2     1  UNL1       -0.2670
     17 N          10.6350   67.9064   -0.9602 N.ar    1  UNL1       -0.2551
     18 N           9.2904   66.8014   -2.5788 N.ar    1  UNL1       -0.2743
     19 C           9.6739   68.0147   -1.9924 C.ar    1  UNL1        0.3323
     20 C          11.1297   66.6593   -0.5952 C.ar    1  UNL1        0.0869
     21 C          10.7544   65.5117   -1.1643 C.ar    1  UNL1        0.0795
     22 C           9.7539   65.5371   -2.2497 C.ar    1  UNL1        0.2626
     23 H           8.5999   66.8550   -3.3228 H       1  UNL1        0.1734
     24 O          17.3162   70.9648   -2.6620 O.3     1  UNL1       -0.2703
     25 P          18.7599   70.2409   -2.7260 P.3     1  UNL1        0.2208
     26 O          18.3903   68.7064   -3.0793 O.3     1  UNL1       -0.4371
     27 O          19.5888   70.4089   -1.4848 O.2     1  UNL1       -0.5170
     28 O          19.4462   70.8153   -4.0688 O.3     1  UNL1       -0.2858
     29 O          20.9462   72.6032   -3.6780 O.3     1  UNL1       -0.3226
     30 O          20.6682   72.5901   -7.8255 O.3     1  UNL1       -0.3794
     31 O          18.2965   72.1726   -6.1803 O.3     1  UNL1       -0.3775
     32 O          22.2101   73.8683   -5.9232 O.3     1  UNL1       -0.3792
     33 C          20.7037   72.0701   -6.4994 C.3     1  UNL1        0.1718
     34 C          19.5437   72.6350   -5.6726 C.3     1  UNL1        0.1968
     35 C          22.0398   72.4487   -5.8545 C.3     1  UNL1        0.1723
     36 C          19.6711   72.2180   -4.2021 C.3     1  UNL1        0.2706
     37 C          22.0402   72.0241   -4.3876 C.3     1  UNL1        0.1830
     38 H          21.4197   72.2086   -8.3105 H       1  UNL1        0.2105
     39 H          17.5951   72.5473   -5.6213 H       1  UNL1        0.2106
     40 H          21.6164   74.2824   -5.2742 H       1  UNL1        0.2106
     41 O          23.0050   72.7852   -2.3892 O.co2   1  UNL1       -0.5466
     42 O          24.3799   72.5892   -4.1971 O.co2   1  UNL1       -0.5466
     43 C          23.2750   72.4896   -3.6835 C.2     1  UNL1        0.0799
@<TRIPOS>UNITY_ATOM_ATTR
41 1
charge -1
@<TRIPOS>BOND
     1     1     4    1
     2     1    24    1
     3     1     2    1
     4     1     3    2
     5    25    28    1
     6    25    24    1
     7    25    26    1
     8    25    27    2
     9     6    11    1
    10     6    12    1
    11    29    36    1
    12    29    37    1
    13     7     9    1
    14     7    13    1
    15     8    10    1
    16     8    14    1
    17     4     5    1
    18    28    36    1
    19    30    33    1
    20    30    38    1
    21    31    34    1
    22    31    39    1
    23    32    35    1
    24    32    40    1
    25    41    43   ar
    26    15    19    2
    27    42    43   ar
    28    16    22    2
    29    17    12    1
    30    17    19   ar
    31    17    20   ar
    32    18    19   ar
    33    18    22   ar
    34    18    23    1
    35     9    10    1
    36     9    11    1
    37    10    12    1
    38    11     5    1
    39    33    34    1
    40    33    35    1
    41    34    36    1
    42    35    37    1
    43    37    43    1
    44    20    21   ar
    45    21    22   ar
@<TRIPOS>MOLECULE
UDP-glaA
 43 45 0 0 0
SMALL
GASTEIGER

@<TRIPOS>ATOM
      1 P          20.4113   71.2321   -1.3484 P.3     1  UNL1        0.2189
      2 O          20.9063   70.5547    0.0349 O.3     1  UNL1       -0.4371
      3 O          19.8821   72.6300   -1.2147 O.2     1  UNL1       -0.5170
      4 O          19.3837   70.1477   -1.9676 O.3     1  UNL1       -0.3112
      5 C          19.0727   70.2206   -3.3486 C.3     1  UNL1        0.1811
      6 O          17.4470   71.3124   -4.7411 O.3     1  UNL1       -0.3308
      7 O          15.3809   69.7421   -3.2389 O.3     1  UNL1       -0.3794
      8 O          15.6256   68.3351   -5.5619 O.3     1  UNL1       -0.3779
      9 C          16.6975   69.3568   -3.6337 C.3     1  UNL1        0.1713
     10 C          16.7404   69.0831   -5.1223 C.3     1  UNL1        0.1895
     11 C          17.6014   70.5762   -3.5078 C.3     1  UNL1        0.1764
     12 C          16.7662   70.4875   -5.7010 C.3     1  UNL1        0.2383
     13 H          15.4110   69.9445   -2.2883 H       1  UNL1        0.2105
     14 H          15.6207   67.4982   -5.0661 H       1  UNL1        0.2106
     15 O          15.5118   70.5188   -8.2310 O.2     1  UNL1       -0.2464
     16 O          19.5531   70.7347  -10.4354 O.2     1  UNL1       -0.2670
     17 N          17.4660   70.5521   -6.9522 N.ar    1  UNL1       -0.2551
     18 N          17.5251   70.6258   -9.3271 N.ar    1  UNL1       -0.2743
     19 C          16.7417   70.5616   -8.1671 C.ar    1  UNL1        0.3323
     20 C          18.8554   70.6049   -6.9674 C.ar    1  UNL1        0.0869
     21 C          19.5878   70.6662   -8.0817 C.ar    1  UNL1        0.0795
     22 C          18.9088   70.6795   -9.3925 C.ar    1  UNL1        0.2626
     23 H          17.0257   70.6332  -10.2123 H       1  UNL1        0.1734
     24 O          21.7076   71.0914   -2.3049 O.3     1  UNL1       -0.2703
     25 P          22.9127   72.1227   -2.6161 P.3     1  UNL1        0.2208
     26 O          24.0131   71.1956   -3.3548 O.3     1  UNL1       -0.4371
     27 O          23.4268   72.8519   -1.4079 O.2     1  UNL1       -0.5170
     28 O          22.3395   73.0822   -3.7800 O.3     1  UNL1       -0.2858
     29 O          20.1077   73.1213   -4.5653 O.3     1  UNL1       -0.3226
     30 O          22.2176   74.5065   -7.8682 O.3     1  UNL1       -0.3794
     31 O          23.2553   72.3022   -6.2650 O.3     1  UNL1       -0.3775
     32 O          19.5638   74.2682   -7.1397 O.3     1  UNL1       -0.3792
     33 C          21.8919   74.3007   -6.4964 C.3     1  UNL1        0.1718
     34 C          21.9285   72.8069   -6.1566 C.3     1  UNL1        0.1968
     35 C          20.4936   74.8646   -6.2294 C.3     1  UNL1        0.1723
     36 C          21.4141   72.5609   -4.7328 C.3     1  UNL1        0.2706
     37 C          20.0684   74.5278   -4.8018 C.3     1  UNL1        0.1830
     38 H          22.1798   75.4631   -8.0384 H       1  UNL1        0.2105
     39 H          23.2302   71.3587   -6.0323 H       1  UNL1        0.2106
     40 H          19.4032   73.3510   -6.8604 H       1  UNL1        0.2106
     41 O          18.2881   75.9422   -5.3795 O.co2   1  UNL1       -0.5466
     42 O          17.9287   74.4599   -3.6852 O.co2   1  UNL1       -0.5466
     43 C          18.6570   74.9464   -4.5381 C.2     1  UNL1        0.0799
@<TRIPOS>UNITY_ATOM_ATTR
41 1
charge -1
@<TRIPOS>BOND
     1     1     4    1
     2     1    24    1
     3     1     2    1
     4     1     3    2
     5    25    28    1
     6    25    24    1
     7    25    26    1
     8    25    27    2
     9     6    11    1
    10     6    12    1
    11    29    36    1
    12    29    37    1
    13     7     9    1
    14     7    13    1
    15     8    10    1
    16     8    14    1
    17     4     5    1
    18    28    36    1
    19    30    33    1
    20    30    38    1
    21    31    34    1
    22    31    39    1
    23    32    35    1
    24    32    40    1
    25    41    43   ar
    26    15    19    2
    27    42    43   ar
    28    16    22    2
    29    17    12    1
    30    17    19   ar
    31    17    20   ar
    32    18    19   ar
    33    18    22   ar
    34    18    23    1
    35     9    10    1
    36     9    11    1
    37    10    12    1
    38    11     5    1
    39    33    34    1
    40    33    35    1
    41    34    36    1
    42    35    37    1
    43    37    43    1
    44    20    21   ar
    45    21    22   ar
