@<TRIPOS>MOLECULE
GDU
 43 45 0 0 0
SMALL
GASTEIGER

@<TRIPOS>ATOM
      1 P          20.8571   71.6854   -2.0544 P.3     1  UNL1        0.2189
      2 O          21.6621   70.6095   -2.6742 O.2     1  UNL1       -0.5170
      3 O          21.6987   73.0582   -2.0635 O.3     1  UNL1       -0.4371
      4 O          19.4957   71.8850   -2.8871 O.3     1  UNL1       -0.3112
      5 C          18.5965   70.8596   -2.4621 C.3     1  UNL1        0.1811
      6 C          16.9781   70.5454   -5.6573 C.3     1  UNL1        0.2383
      7 C          16.9747   69.1082   -5.0764 C.3     1  UNL1        0.1895
      8 O          15.8350   68.3763   -5.5333 O.3     1  UNL1       -0.3779
      9 C          16.8859   69.3745   -3.5511 C.3     1  UNL1        0.1713
     10 C          17.3843   70.8232   -3.3945 C.3     1  UNL1        0.1764
     11 O          17.7587   71.2935   -4.7010 O.3     1  UNL1       -0.3308
     12 O          15.5355   69.2515   -3.1003 O.3     1  UNL1       -0.3794
     13 H          15.8927   67.4952   -5.1380 H       1  UNL1        0.2106
     14 H          15.2624   68.3414   -3.2788 H       1  UNL1        0.2105
     15 N          17.6152   70.5699   -6.9750 N.ar    1  UNL1       -0.2551
     16 C          16.8600   70.4662   -8.0829 C.ar    1  UNL1        0.3323
     17 N          17.4205   70.4896   -9.3065 N.ar    1  UNL1       -0.2743
     18 C          18.7555   70.6080   -9.4408 C.ar    1  UNL1        0.2626
     19 C          19.5640   70.7124   -8.2825 C.ar    1  UNL1        0.0795
     20 C          18.9757   70.6905   -7.0676 C.ar    1  UNL1        0.0869
     21 O          15.6544   70.3593   -7.9776 O.2     1  UNL1       -0.2464
     22 O          19.2641   70.6244  -10.5478 O.2     1  UNL1       -0.2670
     23 H          16.8598   70.4179  -10.0953 H       1  UNL1        0.1734
     24 O          20.5048   71.2836   -0.5356 O.3     1  UNL1       -0.2703
     25 P          21.9050   71.1204    0.2408 P.3     1  UNL1        0.2208
     26 O          21.8629   69.9049    1.0833 O.2     1  UNL1       -0.5170
     27 O          23.1003   70.9889   -0.8307 O.3     1  UNL1       -0.4371
     28 O          22.1582   72.4099    1.1697 O.3     1  UNL1       -0.2858
     29 C          22.5281   71.9249    2.4611 C.3     1  UNL1        0.2704
     30 C          21.7130   72.6529    3.5311 C.3     1  UNL1        0.1967
     31 C          21.9784   74.1576    3.4222 C.3     1  UNL1        0.1715
     32 C          23.4918   74.3939    3.4818 C.3     1  UNL1        0.1694
     33 C          24.1722   73.5346    2.4133 C.3     1  UNL1        0.1761
     34 O          20.3221   72.3950    3.3312 O.3     1  UNL1       -0.3775
     35 O          21.3409   74.8373    4.5057 O.3     1  UNL1       -0.3794
     36 O          23.9810   74.0337    4.7744 O.3     1  UNL1       -0.3794
     37 O          23.9192   72.1544    2.6726 O.3     1  UNL1       -0.3258
     38 H          20.2029   71.4380    3.4011 H       1  UNL1        0.2106
     39 H          20.3960   74.6515    4.4354 H       1  UNL1        0.2105
     40 H          23.5222   74.5943    5.4136 H       1  UNL1        0.2105
     41 C          25.6810   73.7889    2.4415 C.3     1  UNL1        0.1693
     42 O          25.9297   75.1267    2.8765 O.3     1  UNL1       -0.3794
     43 H          26.8894   75.2458    2.8810 H       1  UNL1        0.2105
@<TRIPOS>BOND
     1    15    16   ar
     2    15    20   ar
     3    15     6    1
     4    16    17   ar
     5    16    21    2
     6    17    18   ar
     7    17    23    1
     8    18    19   ar
     9    18    22    2
    10    19    20   ar
    11     6     7    1
    12     6    11    1
    13     7     8    1
    14     7     9    1
    15     8    13    1
    16     9    10    1
    17     9    12    1
    18    10    11    1
    19    10     5    1
    20    12    14    1
    21     5     4    1
    22     4     1    1
    23     1     2    2
    24     1     3    1
    25     1    24    1
    26    24    25    1
    27    25    26    2
    28    25    27    1
    29    25    28    1
    30    28    29    1
    31    29    30    1
    32    29    37    1
    33    30    31    1
    34    30    34    1
    35    31    32    1
    36    31    35    1
    37    32    33    1
    38    32    36    1
    39    33    41    1
    40    33    37    1
    41    41    42    1
    42    34    38    1
    43    35    39    1
    44    36    40    1
    45    42    43    1
@<TRIPOS>MOLECULE
GDU
 43 45 0 0 0
SMALL
GASTEIGER

@<TRIPOS>ATOM
      1 P          20.9906   70.8559   -3.5426 P.3     1  UNL1        0.2189
      2 O          20.4992   69.5655   -4.0744 O.2     1  UNL1       -0.5170
      3 O          22.0132   71.5162   -4.5967 O.3     1  UNL1       -0.4371
      4 O          19.7470   71.8484   -3.3076 O.3     1  UNL1       -0.3112
      5 C          18.7366   71.0941   -2.6363 C.3     1  UNL1        0.1811
      6 C          17.0568   70.5465   -5.7677 C.3     1  UNL1        0.2383
      7 C          17.1000   69.1484   -5.0996 C.3     1  UNL1        0.1895
      8 O          15.9683   68.3644   -5.4841 O.3     1  UNL1       -0.3779
      9 C          17.0382   69.5067   -3.5920 C.3     1  UNL1        0.1713
     10 C          17.5056   70.9730   -3.5363 C.3     1  UNL1        0.1764
     11 O          17.8402   71.3696   -4.8776 O.3     1  UNL1       -0.3308
     12 O          15.7013   69.3819   -3.1032 O.3     1  UNL1       -0.3794
     13 H          16.0553   67.5110   -5.0368 H       1  UNL1        0.2106
     14 H          15.4459   68.4566   -3.2191 H       1  UNL1        0.2105
     15 N          17.6642   70.5035   -7.0989 N.ar    1  UNL1       -0.2551
     16 C          16.8790   70.4314   -8.1882 C.ar    1  UNL1        0.3323
     17 N          17.4121   70.3941   -9.4236 N.ar    1  UNL1       -0.2743
     18 C          18.7487   70.4187   -9.5885 C.ar    1  UNL1        0.2626
     19 C          19.5883   70.4887   -8.4499 C.ar    1  UNL1        0.0795
     20 C          19.0274   70.5292   -7.2227 C.ar    1  UNL1        0.0869
     21 O          15.6716   70.4090   -8.0552 O.2     1  UNL1       -0.2464
     22 O          19.2322   70.3802  -10.7062 O.2     1  UNL1       -0.2670
     23 H          16.8302   70.3465  -10.1988 H       1  UNL1        0.1734
     24 O          21.7502   70.6051   -2.1452 O.3     1  UNL1       -0.2703
     25 P          22.9548   71.6696   -2.0712 P.3     1  UNL1        0.2208
     26 O          24.1846   71.0619   -2.6258 O.2     1  UNL1       -0.5170
     27 O          22.5689   72.9769   -2.9293 O.3     1  UNL1       -0.4371
     28 O          23.2072   72.0905   -0.5385 O.3     1  UNL1       -0.2858
     29 C          23.1866   70.8874    0.2309 C.3     1  UNL1        0.2704
     30 C          21.9683   70.8953    1.1556 C.3     1  UNL1        0.1967
     31 C          22.0448   72.1213    2.0707 C.3     1  UNL1        0.1715
     32 C          23.4030   72.1185    2.7812 C.3     1  UNL1        0.1694
     33 C          24.5134   72.0198    1.7322 C.3     1  UNL1        0.1761
     34 O          20.7741   70.9537    0.3734 O.3     1  UNL1       -0.3775
     35 O          20.9941   72.0648    3.0378 O.3     1  UNL1       -0.3794
     36 O          23.4761   71.0011    3.6679 O.3     1  UNL1       -0.3794
     37 O          24.3809   70.7996    1.0045 O.3     1  UNL1       -0.3258
     38 H          20.7716   70.1686   -0.1909 H       1  UNL1        0.2106
     39 H          20.1625   72.0565    2.5474 H       1  UNL1        0.2105
     40 H          22.7572   71.1021    4.3053 H       1  UNL1        0.2105
     41 C          25.8754   72.0508    2.4293 C.3     1  UNL1        0.1693
     42 O          26.5624   70.8222    2.1853 O.3     1  UNL1       -0.3794
     43 H          27.4139   70.8826    2.6398 H       1  UNL1        0.2105
@<TRIPOS>BOND
     1    15    16   ar
     2    15    20   ar
     3    15     6    1
     4    16    17   ar
     5    16    21    2
     6    17    18   ar
     7    17    23    1
     8    18    19   ar
     9    18    22    2
    10    19    20   ar
    11     6     7    1
    12     6    11    1
    13     7     8    1
    14     7     9    1
    15     8    13    1
    16     9    10    1
    17     9    12    1
    18    10    11    1
    19    10     5    1
    20    12    14    1
    21     5     4    1
    22     4     1    1
    23     1     2    2
    24     1     3    1
    25     1    24    1
    26    24    25    1
    27    25    26    2
    28    25    27    1
    29    25    28    1
    30    28    29    1
    31    29    30    1
    32    29    37    1
    33    30    31    1
    34    30    34    1
    35    31    32    1
    36    31    35    1
    37    32    33    1
    38    32    36    1
    39    33    41    1
    40    33    37    1
    41    41    42    1
    42    34    38    1
    43    35    39    1
    44    36    40    1
    45    42    43    1
@<TRIPOS>MOLECULE
GDU
 43 45 0 0 0
SMALL
GASTEIGER

@<TRIPOS>ATOM
      1 P          20.7466   71.8215   -1.4613 P.3     1  UNL1        0.2189
      2 O          21.5498   70.6308   -1.8172 O.2     1  UNL1       -0.5170
      3 O          21.1054   73.0299   -2.4632 O.3     1  UNL1       -0.4371
      4 O          19.1819   71.4699   -1.5833 O.3     1  UNL1       -0.3112
      5 C          19.0723   70.3855   -2.5068 C.3     1  UNL1        0.1811
      6 C          17.2464   70.4660   -5.6031 C.3     1  UNL1        0.2383
      7 C          17.0739   69.0144   -5.0873 C.3     1  UNL1        0.1895
      8 O          15.8185   68.4715   -5.5025 O.3     1  UNL1       -0.3779
      9 C          17.1105   69.2097   -3.5492 C.3     1  UNL1        0.1713
     10 C          17.8159   70.5656   -3.3607 C.3     1  UNL1        0.1764
     11 O          18.1777   71.0480   -4.6663 O.3     1  UNL1       -0.3308
     12 O          15.7841   69.2503   -3.0190 O.3     1  UNL1       -0.3794
     13 H          15.7740   67.5713   -5.1511 H       1  UNL1        0.2106
     14 H          15.3760   68.3971   -3.2199 H       1  UNL1        0.2105
     15 N          17.8045   70.4720   -6.9563 N.ar    1  UNL1       -0.2551
     16 C          16.9804   70.4197   -8.0177 C.ar    1  UNL1        0.3323
     17 N          17.4677   70.4274   -9.2725 N.ar    1  UNL1       -0.2743
     18 C          18.7967   70.4779   -9.4856 C.ar    1  UNL1        0.2626
     19 C          19.6770   70.5275   -8.3770 C.ar    1  UNL1        0.0795
     20 C          19.1615   70.5229   -7.1293 C.ar    1  UNL1        0.0869
     21 O          15.7793   70.3743   -7.8413 O.2     1  UNL1       -0.2464
     22 O          19.2389   70.4801  -10.6209 O.2     1  UNL1       -0.2670
     23 H          16.8582   70.3936  -10.0269 H       1  UNL1        0.1734
     24 O          21.0826   72.2619    0.0505 O.3     1  UNL1       -0.2703
     25 P          22.2090   71.2483    0.5925 P.3     1  UNL1        0.2208
     26 O          21.5840   69.9494    0.9263 O.2     1  UNL1       -0.5170
     27 O          23.3260   71.0287   -0.5470 O.3     1  UNL1       -0.4371
     28 O          22.9004   71.8661    1.9079 O.3     1  UNL1       -0.2858
     29 C          22.6144   73.2654    1.9087 C.3     1  UNL1        0.2704
     30 C          23.8937   74.0467    1.6051 C.3     1  UNL1        0.1967
     31 C          24.9473   73.7094    2.6647 C.3     1  UNL1        0.1715
     32 C          24.3445   73.9586    4.0518 C.3     1  UNL1        0.1694
     33 C          23.0309   73.1817    4.1706 C.3     1  UNL1        0.1761
     34 O          24.3804   73.6842    0.3117 O.3     1  UNL1       -0.3775
     35 O          26.0957   74.5401    2.4813 O.3     1  UNL1       -0.3794
     36 O          24.0963   75.3549    4.2211 O.3     1  UNL1       -0.3794
     37 O          22.1074   73.6443    3.1862 O.3     1  UNL1       -0.3258
     38 H          23.6840   73.9069   -0.3210 H       1  UNL1        0.2106
     39 H          26.4332   74.3593    1.5949 H       1  UNL1        0.2105
     40 H          24.9476   75.8032    4.1329 H       1  UNL1        0.2105
     41 C          22.4377   73.3963    5.5649 C.3     1  UNL1        0.1693
     42 O          21.0435   73.6855    5.4490 O.3     1  UNL1       -0.3794
     43 H          20.7085   73.8129    6.3473 H       1  UNL1        0.2105
@<TRIPOS>BOND
     1    15    16   ar
     2    15    20   ar
     3    15     6    1
     4    16    17   ar
     5    16    21    2
     6    17    18   ar
     7    17    23    1
     8    18    19   ar
     9    18    22    2
    10    19    20   ar
    11     6     7    1
    12     6    11    1
    13     7     8    1
    14     7     9    1
    15     8    13    1
    16     9    10    1
    17     9    12    1
    18    10    11    1
    19    10     5    1
    20    12    14    1
    21     5     4    1
    22     4     1    1
    23     1     2    2
    24     1     3    1
    25     1    24    1
    26    24    25    1
    27    25    26    2
    28    25    27    1
    29    25    28    1
    30    28    29    1
    31    29    30    1
    32    29    37    1
    33    30    31    1
    34    30    34    1
    35    31    32    1
    36    31    35    1
    37    32    33    1
    38    32    36    1
    39    33    41    1
    40    33    37    1
    41    41    42    1
    42    34    38    1
    43    35    39    1
    44    36    40    1
    45    42    43    1
@<TRIPOS>MOLECULE
GDU
 43 45 0 0 0
SMALL
GASTEIGER

@<TRIPOS>ATOM
      1 P          20.9581   71.7638   -1.9328 P.3     1  UNL1        0.2189
      2 O          22.1140   70.8418   -1.9915 O.2     1  UNL1       -0.5170
      3 O          21.4684   73.2775   -2.1359 O.3     1  UNL1       -0.4371
      4 O          19.9127   71.3892   -3.0962 O.3     1  UNL1       -0.3112
      5 C          18.8281   70.7003   -2.4719 C.3     1  UNL1        0.1811
      6 C          17.1178   70.5544   -5.6312 C.3     1  UNL1        0.2383
      7 C          17.0305   69.1104   -5.0744 C.3     1  UNL1        0.1895
      8 O          15.8335   68.4654   -5.5153 O.3     1  UNL1       -0.3779
      9 C          16.9957   69.3541   -3.5432 C.3     1  UNL1        0.1713
     10 C          17.5948   70.7628   -3.3747 C.3     1  UNL1        0.1764
     11 O          17.9695   71.2305   -4.6820 O.3     1  UNL1       -0.3308
     12 O          15.6510   69.3142   -3.0614 O.3     1  UNL1       -0.3794
     13 H          15.8405   67.5753   -5.1362 H       1  UNL1        0.2106
     14 H          15.3127   68.4280   -3.2483 H       1  UNL1        0.2105
     15 N          17.7241   70.5600   -6.9636 N.ar    1  UNL1       -0.2551
     16 C          16.9413   70.4661   -8.0528 C.ar    1  UNL1        0.3323
     17 N          17.4732   70.4725   -9.2893 N.ar    1  UNL1       -0.2743
     18 C          18.8067   70.5637   -9.4554 C.ar    1  UNL1        0.2626
     19 C          19.6441   70.6574   -8.3170 C.ar    1  UNL1        0.0795
     20 C          19.0842   70.6530   -7.0886 C.ar    1  UNL1        0.0869
     21 O          15.7365   70.3837   -7.9188 O.2     1  UNL1       -0.2464
     22 O          19.2894   70.5648  -10.5741 O.2     1  UNL1       -0.2670
     23 H          16.8928   70.4082  -10.0645 H       1  UNL1        0.1734
     24 O          20.2381   71.6295   -0.4989 O.3     1  UNL1       -0.2703
     25 P          21.4064   71.4810    0.5979 P.3     1  UNL1        0.2208
     26 O          21.6255   70.0481    0.8941 O.2     1  UNL1       -0.5170
     27 O          22.7668   72.1236    0.0228 O.3     1  UNL1       -0.4371
     28 O          20.9794   72.2495    1.9459 O.3     1  UNL1       -0.2858
     29 C          21.9575   73.2654    2.1720 C.3     1  UNL1        0.2704
     30 C          22.5708   73.0814    3.5610 C.3     1  UNL1        0.1967
     31 C          21.4585   73.1581    4.6114 C.3     1  UNL1        0.1715
     32 C          20.6825   74.4644    4.4089 C.3     1  UNL1        0.1694
     33 C          20.2103   74.5425    2.9549 C.3     1  UNL1        0.1761
     34 O          23.2143   71.8079    3.6352 O.3     1  UNL1       -0.3775
     35 O          22.0319   73.1354    5.9203 O.3     1  UNL1       -0.3794
     36 O          21.5319   75.5749    4.7008 O.3     1  UNL1       -0.3794
     37 O          21.3389   74.5467    2.0819 O.3     1  UNL1       -0.3258
     38 H          23.9001   71.8018    2.9537 H       1  UNL1        0.2106
     39 H          22.5183   72.3050    5.9984 H       1  UNL1        0.2105
     40 H          21.8087   75.4811    5.6216 H       1  UNL1        0.2105
     41 C          19.4046   75.8274    2.7505 C.3     1  UNL1        0.1693
     42 O          18.0105   75.5160    2.7282 O.3     1  UNL1       -0.3794
     43 H          17.5393   76.3506    2.5986 H       1  UNL1        0.2105
@<TRIPOS>BOND
     1    15    16   ar
     2    15    20   ar
     3    15     6    1
     4    16    17   ar
     5    16    21    2
     6    17    18   ar
     7    17    23    1
     8    18    19   ar
     9    18    22    2
    10    19    20   ar
    11     6     7    1
    12     6    11    1
    13     7     8    1
    14     7     9    1
    15     8    13    1
    16     9    10    1
    17     9    12    1
    18    10    11    1
    19    10     5    1
    20    12    14    1
    21     5     4    1
    22     4     1    1
    23     1     2    2
    24     1     3    1
    25     1    24    1
    26    24    25    1
    27    25    26    2
    28    25    27    1
    29    25    28    1
    30    28    29    1
    31    29    30    1
    32    29    37    1
    33    30    31    1
    34    30    34    1
    35    31    32    1
    36    31    35    1
    37    32    33    1
    38    32    36    1
    39    33    41    1
    40    33    37    1
    41    41    42    1
    42    34    38    1
    43    35    39    1
    44    36    40    1
    45    42    43    1
@<TRIPOS>MOLECULE
GDU
 43 45 0 0 0
SMALL
GASTEIGER

@<TRIPOS>ATOM
      1 P          20.6933   71.6578   -3.1333 P.3     1  UNL1        0.2189
      2 O          20.8272   70.8537   -1.8985 O.2     1  UNL1       -0.5170
      3 O          20.9472   70.7179   -4.4159 O.3     1  UNL1       -0.4371
      4 O          19.2130   72.2819   -3.2100 O.3     1  UNL1       -0.3112
      5 C          18.3345   71.3404   -2.5917 C.3     1  UNL1        0.1811
      6 C          16.9062   70.4928   -5.7806 C.3     1  UNL1        0.2383
      7 C          17.1318   69.1284   -5.0802 C.3     1  UNL1        0.1895
      8 O          16.1527   68.1736   -5.4962 O.3     1  UNL1       -0.3779
      9 C          16.9456   69.4959   -3.5851 C.3     1  UNL1        0.1713
     10 C          17.1798   71.0174   -3.5417 C.3     1  UNL1        0.1764
     11 O          17.5119   71.4402   -4.8756 O.3     1  UNL1       -0.3308
     12 O          15.6222   69.1742   -3.1525 O.3     1  UNL1       -0.3794
     13 H          16.3484   67.3508   -5.0266 H       1  UNL1        0.2106
     14 H          15.5173   68.2190   -3.2588 H       1  UNL1        0.2105
     15 N          17.5745   70.5234   -7.0826 N.ar    1  UNL1       -0.2551
     16 C          16.8413   70.4933   -8.2094 C.ar    1  UNL1        0.3323
     17 N          17.4308   70.5240   -9.4191 N.ar    1  UNL1       -0.2743
     18 C          18.7729   70.5756   -9.5203 C.ar    1  UNL1        0.2626
     19 C          19.5584   70.6020   -8.3419 C.ar    1  UNL1        0.0795
     20 C          18.9413   70.5745   -7.1415 C.ar    1  UNL1        0.0869
     21 O          15.6296   70.4472   -8.1339 O.2     1  UNL1       -0.2464
     22 O          19.3077   70.5985  -10.6149 O.2     1  UNL1       -0.2670
     23 H          16.8859   70.5059  -10.2219 H       1  UNL1        0.1734
     24 O          21.7784   72.8473   -3.1183 O.3     1  UNL1       -0.2703
     25 P          23.2220   72.1597   -2.9357 P.3     1  UNL1        0.2208
     26 O          23.0702   70.6879   -2.9326 O.2     1  UNL1       -0.5170
     27 O          24.1822   72.5970   -4.1527 O.3     1  UNL1       -0.4371
     28 O          23.8723   72.6361   -1.5428 O.3     1  UNL1       -0.2858
     29 C          22.9752   73.5886   -0.9703 C.3     1  UNL1        0.2704
     30 C          23.7775   74.7115   -0.3111 C.3     1  UNL1        0.1967
     31 C          24.6863   74.1095    0.7651 C.3     1  UNL1        0.1715
     32 C          23.8270   73.2740    1.7208 C.3     1  UNL1        0.1694
     33 C          23.0218   72.2580    0.9069 C.3     1  UNL1        0.1761
     34 O          24.5732   75.3732   -1.2961 O.3     1  UNL1       -0.3775
     35 O          25.3327   75.1583    1.4894 O.3     1  UNL1       -0.3794
     36 O          22.9378   74.1316    2.4375 O.3     1  UNL1       -0.3794
     37 O          22.1567   72.9430    0.0023 O.3     1  UNL1       -0.3258
     38 H          23.9619   75.7294   -1.9552 H       1  UNL1        0.2106
     39 H          25.8501   75.6629    0.8491 H       1  UNL1        0.2105
     40 H          23.4869   74.7562    2.9291 H       1  UNL1        0.2105
     41 C          22.1858   71.3952    1.8549 C.3     1  UNL1        0.1693
     42 O          21.5453   70.3563    1.1123 O.3     1  UNL1       -0.3794
     43 H          21.0307   69.8365    1.7449 H       1  UNL1        0.2105
@<TRIPOS>BOND
     1    15    16   ar
     2    15    20   ar
     3    15     6    1
     4    16    17   ar
     5    16    21    2
     6    17    18   ar
     7    17    23    1
     8    18    19   ar
     9    18    22    2
    10    19    20   ar
    11     6     7    1
    12     6    11    1
    13     7     8    1
    14     7     9    1
    15     8    13    1
    16     9    10    1
    17     9    12    1
    18    10    11    1
    19    10     5    1
    20    12    14    1
    21     5     4    1
    22     4     1    1
    23     1     2    2
    24     1     3    1
    25     1    24    1
    26    24    25    1
    27    25    26    2
    28    25    27    1
    29    25    28    1
    30    28    29    1
    31    29    30    1
    32    29    37    1
    33    30    31    1
    34    30    34    1
    35    31    32    1
    36    31    35    1
    37    32    33    1
    38    32    36    1
    39    33    41    1
    40    33    37    1
    41    41    42    1
    42    34    38    1
    43    35    39    1
    44    36    40    1
    45    42    43    1
@<TRIPOS>MOLECULE
GDU
 43 45 0 0 0
SMALL
GASTEIGER

@<TRIPOS>ATOM
      1 P          21.8695   71.4182   -1.5311 P.3     1  UNL1        0.2189
      2 O          21.7218   72.8900   -1.4919 O.2     1  UNL1       -0.5170
      3 O          20.5695   70.7308   -0.8750 O.3     1  UNL1       -0.4371
      4 O          22.0198   70.9341   -3.0575 O.3     1  UNL1       -0.3112
      5 C          22.6022   72.0198   -3.7805 C.3     1  UNL1        0.1811
      6 C          19.7526   71.6495   -5.9416 C.3     1  UNL1        0.2383
      7 C          19.4587   72.9352   -5.1269 C.3     1  UNL1        0.1895
      8 O          18.6793   73.8569   -5.8925 O.3     1  UNL1       -0.3779
      9 C          20.8838   73.4925   -4.8741 C.3     1  UNL1        0.1713
     10 C          21.8020   72.2702   -5.0600 C.3     1  UNL1        0.1764
     11 O          20.9606   71.1379   -5.3394 O.3     1  UNL1       -0.3308
     12 O          21.1976   74.5117   -5.8252 O.3     1  UNL1       -0.3794
     13 H          18.5319   74.6309   -5.3312 H       1  UNL1        0.2106
     14 H          20.5534   75.2213   -5.6981 H       1  UNL1        0.2105
     15 N          18.6589   70.6866   -5.8021 N.ar    1  UNL1       -0.2551
     16 C          17.8604   70.4275   -6.8526 C.ar    1  UNL1        0.3323
     17 N          16.8500   69.5439   -6.7519 N.ar    1  UNL1       -0.2743
     18 C          16.6155   68.9090   -5.5873 C.ar    1  UNL1        0.2626
     19 C          17.4449   69.1763   -4.4707 C.ar    1  UNL1        0.0795
     20 C          18.4538   70.0638   -4.6003 C.ar    1  UNL1        0.0869
     21 O          18.0600   70.9922   -7.9097 O.2     1  UNL1       -0.2464
     22 O          15.6982   68.1126   -5.4938 O.2     1  UNL1       -0.2670
     23 H          16.2863   69.3659   -7.5215 H       1  UNL1        0.1734
     24 O          23.1794   70.9889   -0.6991 O.3     1  UNL1       -0.2703
     25 P          22.7635   70.9829    0.8555 P.3     1  UNL1        0.2208
     26 O          21.6509   70.0303    1.0646 O.2     1  UNL1       -0.5170
     27 O          24.0277   70.5346    1.7472 O.3     1  UNL1       -0.4371
     28 O          22.2965   72.4595    1.2930 O.3     1  UNL1       -0.2858
     29 C          21.1971   72.2982    2.1903 C.3     1  UNL1        0.2704
     30 C          20.1647   73.3971    1.9333 C.3     1  UNL1        0.1967
     31 C          20.8298   74.7625    2.1327 C.3     1  UNL1        0.1715
     32 C          21.4823   74.7919    3.5194 C.3     1  UNL1        0.1694
     33 C          22.4170   73.5874    3.6554 C.3     1  UNL1        0.1761
     34 O          19.6766   73.2916    0.5947 O.3     1  UNL1       -0.3775
     35 O          19.8450   75.7942    2.0408 O.3     1  UNL1       -0.3794
     36 O          20.4699   74.7331    4.5252 O.3     1  UNL1       -0.3794
     37 O          21.6667   72.3798    3.5339 O.3     1  UNL1       -0.3258
     38 H          19.2739   72.4165    0.5127 H       1  UNL1        0.2106
     39 H          19.4542   75.7303    1.1602 H       1  UNL1        0.2105
     40 H          19.9034   75.5053    4.3976 H       1  UNL1        0.2105
     41 C          23.1001   73.6260    5.0242 C.3     1  UNL1        0.1693
     42 O          22.3442   72.8493    5.9550 O.3     1  UNL1       -0.3794
     43 H          22.8076   72.8989    6.8024 H       1  UNL1        0.2105
@<TRIPOS>BOND
     1    15    16   ar
     2    15    20   ar
     3    15     6    1
     4    16    17   ar
     5    16    21    2
     6    17    18   ar
     7    17    23    1
     8    18    19   ar
     9    18    22    2
    10    19    20   ar
    11     6     7    1
    12     6    11    1
    13     7     8    1
    14     7     9    1
    15     8    13    1
    16     9    10    1
    17     9    12    1
    18    10    11    1
    19    10     5    1
    20    12    14    1
    21     5     4    1
    22     4     1    1
    23     1     2    2
    24     1     3    1
    25     1    24    1
    26    24    25    1
    27    25    26    2
    28    25    27    1
    29    25    28    1
    30    28    29    1
    31    29    30    1
    32    29    37    1
    33    30    31    1
    34    30    34    1
    35    31    32    1
    36    31    35    1
    37    32    33    1
    38    32    36    1
    39    33    41    1
    40    33    37    1
    41    41    42    1
    42    34    38    1
    43    35    39    1
    44    36    40    1
    45    42    43    1
@<TRIPOS>MOLECULE
GDU
 43 45 0 0 0
SMALL
GASTEIGER

@<TRIPOS>ATOM
      1 P          23.1199   73.0840   -4.3426 P.3     1  UNL1        0.2189
      2 O          24.5267   72.6904   -4.1069 O.2     1  UNL1       -0.5170
      3 O          23.0674   74.6133   -4.8441 O.3     1  UNL1       -0.4371
      4 O          22.4758   72.1288   -5.4649 O.3     1  UNL1       -0.3112
      5 C          22.6833   72.7713   -6.7238 C.3     1  UNL1        0.1811
      6 C          19.1577   72.2390   -7.1868 C.3     1  UNL1        0.2383
      7 C          19.2457   73.4797   -6.2616 C.3     1  UNL1        0.1895
      8 O          18.1393   74.3580   -6.4799 O.3     1  UNL1       -0.3779
      9 C          20.5726   74.1361   -6.7238 C.3     1  UNL1        0.1713
     10 C          21.3361   72.9908   -7.4144 C.3     1  UNL1        0.1764
     11 O          20.5298   71.8055   -7.3004 O.3     1  UNL1       -0.3308
     12 O          20.3108   75.1979   -7.6436 O.3     1  UNL1       -0.3794
     13 H          18.2534   75.1054   -5.8765 H       1  UNL1        0.2106
     14 H          19.7813   75.8541   -7.1706 H       1  UNL1        0.2105
     15 N          18.3356   71.1938   -6.5748 N.ar    1  UNL1       -0.2551
     16 C          17.3609   70.6068   -7.2916 C.ar    1  UNL1        0.3323
     17 N          16.5931   69.6408   -6.7537 N.ar    1  UNL1       -0.2743
     18 C          16.7839   69.2517   -5.4784 C.ar    1  UNL1        0.2626
     19 C          17.8031   69.8652   -4.7096 C.ar    1  UNL1        0.0795
     20 C          18.5614   70.8285   -5.2749 C.ar    1  UNL1        0.0869
     21 O          17.1773   70.9469   -8.4434 O.2     1  UNL1       -0.2464
     22 O          16.0863   68.3808   -4.9893 O.2     1  UNL1       -0.2670
     23 H          15.8971   69.2250   -7.2870 H       1  UNL1        0.1734
     24 O          22.2870   72.9412   -2.9721 O.3     1  UNL1       -0.2703
     25 P          22.7374   71.5525   -2.2948 P.3     1  UNL1        0.2208
     26 O          21.6527   70.5572   -2.4424 O.2     1  UNL1       -0.5170
     27 O          24.0675   71.0078   -3.0217 O.3     1  UNL1       -0.4371
     28 O          23.0403   71.7898   -0.7321 O.3     1  UNL1       -0.2858
     29 C          22.0589   71.0521   -0.0025 C.3     1  UNL1        0.2704
     30 C          20.8854   71.9699    0.3437 C.3     1  UNL1        0.1967
     31 C          21.4026   73.1492    1.1731 C.3     1  UNL1        0.1715
     32 C          22.1778   72.5998    2.3759 C.3     1  UNL1        0.1694
     33 C          23.2555   71.6350    1.8750 C.3     1  UNL1        0.1761
     34 O          20.2862   72.4550   -0.8592 O.3     1  UNL1       -0.3775
     35 O          20.2999   73.9362    1.6284 O.3     1  UNL1       -0.3794
     36 O          21.2809   71.9108    3.2482 O.3     1  UNL1       -0.3794
     37 O          22.6431   70.5412    1.1935 O.3     1  UNL1       -0.3258
     38 H          19.9824   71.6804   -1.3516 H       1  UNL1        0.2106
     39 H          19.8362   74.2497    0.8417 H       1  UNL1        0.2105
     40 H          20.6186   72.5537    3.5333 H       1  UNL1        0.2105
     41 C          24.0581   71.1067    3.0661 C.3     1  UNL1        0.1693
     42 O          24.8849   70.0227    2.6390 O.3     1  UNL1       -0.3794
     43 H          25.3732   69.7198    3.4169 H       1  UNL1        0.2105
@<TRIPOS>BOND
     1    15    16   ar
     2    15    20   ar
     3    15     6    1
     4    16    17   ar
     5    16    21    2
     6    17    18   ar
     7    17    23    1
     8    18    19   ar
     9    18    22    2
    10    19    20   ar
    11     6     7    1
    12     6    11    1
    13     7     8    1
    14     7     9    1
    15     8    13    1
    16     9    10    1
    17     9    12    1
    18    10    11    1
    19    10     5    1
    20    12    14    1
    21     5     4    1
    22     4     1    1
    23     1     2    2
    24     1     3    1
    25     1    24    1
    26    24    25    1
    27    25    26    2
    28    25    27    1
    29    25    28    1
    30    28    29    1
    31    29    30    1
    32    29    37    1
    33    30    31    1
    34    30    34    1
    35    31    32    1
    36    31    35    1
    37    32    33    1
    38    32    36    1
    39    33    41    1
    40    33    37    1
    41    41    42    1
    42    34    38    1
    43    35    39    1
    44    36    40    1
    45    42    43    1
@<TRIPOS>MOLECULE
GDU
 43 45 0 0 0
SMALL
GASTEIGER

@<TRIPOS>ATOM
      1 P          20.7473   71.6033   -1.2314 P.3     1  UNL1        0.2189
      2 O          21.3596   72.9205   -0.9494 O.2     1  UNL1       -0.5170
      3 O          20.3753   70.8763    0.1564 O.3     1  UNL1       -0.4371
      4 O          19.4122   71.8076   -2.1048 O.3     1  UNL1       -0.3112
      5 C          18.9643   70.5060   -2.4865 C.3     1  UNL1        0.1811
      6 C          17.1808   70.4881   -5.6084 C.3     1  UNL1        0.2383
      7 C          17.0554   69.0361   -5.0803 C.3     1  UNL1        0.1895
      8 O          15.8272   68.4425   -5.5074 O.3     1  UNL1       -0.3779
      9 C          17.0628   69.2474   -3.5439 C.3     1  UNL1        0.1713
     10 C          17.7143   70.6306   -3.3595 C.3     1  UNL1        0.1764
     11 O          18.0763   71.1136   -4.6648 O.3     1  UNL1       -0.3308
     12 O          15.7284   69.2433   -3.0326 O.3     1  UNL1       -0.3794
     13 H          15.8114   67.5447   -5.1474 H       1  UNL1        0.2106
     14 H          15.3554   68.3736   -3.2304 H       1  UNL1        0.2105
     15 N          17.7575   70.5020   -6.9538 N.ar    1  UNL1       -0.2551
     16 C          16.9485   70.4487   -8.0266 C.ar    1  UNL1        0.3323
     17 N          17.4530   70.4636   -9.2745 N.ar    1  UNL1       -0.2743
     18 C          18.7845   70.5224   -9.4690 C.ar    1  UNL1        0.2626
     19 C          19.6491   70.5732   -8.3483 C.ar    1  UNL1        0.0795
     20 C          19.1165   70.5612   -7.1078 C.ar    1  UNL1        0.0869
     21 O          15.7453   70.3958   -7.8670 O.2     1  UNL1       -0.2464
     22 O          19.2422   70.5311  -10.5981 O.2     1  UNL1       -0.2670
     23 H          16.8541   70.4288  -10.0374 H       1  UNL1        0.1734
     24 O          21.7915   70.6914   -2.0502 O.3     1  UNL1       -0.2703
     25 P          23.0936   71.5986   -2.3175 P.3     1  UNL1        0.2208
     26 O          23.6077   72.1147   -1.0297 O.2     1  UNL1       -0.5170
     27 O          24.2307   70.7081   -3.0304 O.3     1  UNL1       -0.4371
     28 O          22.7023   72.8326   -3.2735 O.3     1  UNL1       -0.2858
     29 C          23.8509   73.1190   -4.0725 C.3     1  UNL1        0.2704
     30 C          24.2756   74.5717   -3.8514 C.3     1  UNL1        0.1967
     31 C          23.1118   75.4940   -4.2271 C.3     1  UNL1        0.1715
     32 C          22.6593   75.1564   -5.6522 C.3     1  UNL1        0.1694
     33 C          22.3551   73.6586   -5.7361 C.3     1  UNL1        0.1761
     34 O          24.6185   74.7664   -2.4782 O.3     1  UNL1       -0.3775
     35 O          23.5399   76.8562   -4.1667 O.3     1  UNL1       -0.3794
     36 O          23.6971   75.4906   -6.5748 O.3     1  UNL1       -0.3794
     37 O          23.5354   72.9108   -5.4471 O.3     1  UNL1       -0.3258
     38 H          25.3482   74.1623   -2.2845 H       1  UNL1        0.2106
     39 H          23.8257   77.0198   -3.2591 H       1  UNL1        0.2105
     40 H          23.8585   76.4387   -6.4831 H       1  UNL1        0.2105
     41 C          21.8693   73.3169   -7.1465 C.3     1  UNL1        0.1693
     42 O          22.9958   73.1286   -8.0048 O.3     1  UNL1       -0.3794
     43 H          22.6473   72.9148   -8.8812 H       1  UNL1        0.2105
@<TRIPOS>BOND
     1    15    16   ar
     2    15    20   ar
     3    15     6    1
     4    16    17   ar
     5    16    21    2
     6    17    18   ar
     7    17    23    1
     8    18    19   ar
     9    18    22    2
    10    19    20   ar
    11     6     7    1
    12     6    11    1
    13     7     8    1
    14     7     9    1
    15     8    13    1
    16     9    10    1
    17     9    12    1
    18    10    11    1
    19    10     5    1
    20    12    14    1
    21     5     4    1
    22     4     1    1
    23     1     2    2
    24     1     3    1
    25     1    24    1
    26    24    25    1
    27    25    26    2
    28    25    27    1
    29    25    28    1
    30    28    29    1
    31    29    30    1
    32    29    37    1
    33    30    31    1
    34    30    34    1
    35    31    32    1
    36    31    35    1
    37    32    33    1
    38    32    36    1
    39    33    41    1
    40    33    37    1
    41    41    42    1
    42    34    38    1
    43    35    39    1
    44    36    40    1
    45    42    43    1
@<TRIPOS>MOLECULE
GDU
 43 45 0 0 0
SMALL
GASTEIGER

@<TRIPOS>ATOM
      1 P          23.5587   72.2106   -3.2375 P.3     1  UNL1        0.2189
      2 O          24.1310   70.8608   -3.0376 O.2     1  UNL1       -0.5170
      3 O          24.5683   73.0951   -4.1270 O.3     1  UNL1       -0.4371
      4 O          22.1444   72.0876   -3.9935 O.3     1  UNL1       -0.3112
      5 C          22.3822   72.3936   -5.3684 C.3     1  UNL1        0.1811
      6 C          19.3266   70.6461   -6.1009 C.3     1  UNL1        0.2383
      7 C          19.1062   72.0707   -6.6707 C.3     1  UNL1        0.1895
      8 O          18.2418   72.0367   -7.8087 O.3     1  UNL1       -0.3779
      9 C          20.5442   72.4827   -7.0805 C.3     1  UNL1        0.1713
     10 C          21.4503   71.5574   -6.2473 C.3     1  UNL1        0.1764
     11 O          20.5959   70.7477   -5.4212 O.3     1  UNL1       -0.3308
     12 O          20.7467   72.2661   -8.4784 O.3     1  UNL1       -0.3794
     13 H          18.1459   72.9498   -8.1134 H       1  UNL1        0.2106
     14 H          20.1121   72.8278   -8.9437 H       1  UNL1        0.2105
     15 N          18.2632   70.2952   -5.1579 N.ar    1  UNL1       -0.2551
     16 C          17.1405   69.7074   -5.6075 C.ar    1  UNL1        0.3323
     17 N          16.1492   69.3714   -4.7611 N.ar    1  UNL1       -0.2743
     18 C          16.2631   69.6294   -3.4440 C.ar    1  UNL1        0.2626
     19 C          17.4377   70.2534   -2.9570 C.ar    1  UNL1        0.0795
     20 C          18.4182   70.5759   -3.8270 C.ar    1  UNL1        0.0869
     21 O          17.0236   69.4680   -6.7929 O.2     1  UNL1       -0.2464
     22 O          15.3644   69.3300   -2.6778 O.2     1  UNL1       -0.2670
     23 H          15.3477   68.9439   -5.1024 H       1  UNL1        0.1734
     24 O          23.3445   72.9188   -1.8075 O.3     1  UNL1       -0.2703
     25 P          22.9294   71.7602   -0.7704 P.3     1  UNL1        0.2208
     26 O          21.8640   70.9240   -1.3660 O.2     1  UNL1       -0.5170
     27 O          24.2138   70.8432   -0.4485 O.3     1  UNL1       -0.4371
     28 O          22.3917   72.4259    0.5926 O.3     1  UNL1       -0.2858
     29 C          23.5332   72.9319    1.2858 C.3     1  UNL1        0.2704
     30 C          23.5714   72.3473    2.6986 C.3     1  UNL1        0.1967
     31 C          22.2811   72.7284    3.4309 C.3     1  UNL1        0.1715
     32 C          22.1078   74.2497    3.3590 C.3     1  UNL1        0.1694
     33 C          22.1788   74.6900    1.8947 C.3     1  UNL1        0.1761
     34 O          23.6794   70.9246    2.6252 O.3     1  UNL1       -0.3775
     35 O          22.3646   72.3163    4.7968 O.3     1  UNL1       -0.3794
     36 O          23.1473   74.8848    4.1048 O.3     1  UNL1       -0.3794
     37 O          23.4549   74.3539    1.3522 O.3     1  UNL1       -0.3258
     38 H          24.4999   70.7312    2.1515 H       1  UNL1        0.2106
     39 H          22.4847   71.3583    4.7933 H       1  UNL1        0.2105
     40 H          23.0675   74.5745    5.0162 H       1  UNL1        0.2105
     41 C          21.9726   76.2040    1.8086 C.3     1  UNL1        0.1693
     42 O          22.8121   76.7408    0.7849 O.3     1  UNL1       -0.3794
     43 H          22.6518   77.6942    0.7627 H       1  UNL1        0.2105
@<TRIPOS>BOND
     1    15    16   ar
     2    15    20   ar
     3    15     6    1
     4    16    17   ar
     5    16    21    2
     6    17    18   ar
     7    17    23    1
     8    18    19   ar
     9    18    22    2
    10    19    20   ar
    11     6     7    1
    12     6    11    1
    13     7     8    1
    14     7     9    1
    15     8    13    1
    16     9    10    1
    17     9    12    1
    18    10    11    1
    19    10     5    1
    20    12    14    1
    21     5     4    1
    22     4     1    1
    23     1     2    2
    24     1     3    1
    25     1    24    1
    26    24    25    1
    27    25    26    2
    28    25    27    1
    29    25    28    1
    30    28    29    1
    31    29    30    1
    32    29    37    1
    33    30    31    1
    34    30    34    1
    35    31    32    1
    36    31    35    1
    37    32    33    1
    38    32    36    1
    39    33    41    1
    40    33    37    1
    41    41    42    1
    42    34    38    1
    43    35    39    1
    44    36    40    1
    45    42    43    1
@<TRIPOS>MOLECULE
GDU
 43 45 0 0 0
SMALL
GASTEIGER

@<TRIPOS>ATOM
      1 P          21.3541   72.7600   -2.7131 P.3     1  UNL1        0.2189
      2 O          20.5365   73.3708   -1.6416 O.2     1  UNL1       -0.5170
      3 O          22.6394   72.0401   -2.0629 O.3     1  UNL1       -0.4371
      4 O          20.4740   71.6725   -3.5065 O.3     1  UNL1       -0.3112
      5 C          19.4261   71.2655   -2.6251 C.3     1  UNL1        0.1811
      6 C          17.4791   70.6849   -5.5915 C.3     1  UNL1        0.2383
      7 C          17.5958   69.2909   -4.9236 C.3     1  UNL1        0.1895
      8 O          16.4423   68.4939   -5.2019 O.3     1  UNL1       -0.3779
      9 C          17.6653   69.6567   -3.4181 C.3     1  UNL1        0.1713
     10 C          18.1210   71.1277   -3.4110 C.3     1  UNL1        0.1764
     11 O          18.3305   71.5203   -4.7785 O.3     1  UNL1       -0.3308
     12 O          16.3786   69.5217   -2.8113 O.3     1  UNL1       -0.3794
     13 H          16.5775   67.6439   -4.7604 H       1  UNL1        0.2106
     14 H          16.1233   68.5934   -2.8997 H       1  UNL1        0.2105
     15 N          17.9657   70.6405   -6.9713 N.ar    1  UNL1       -0.2551
     16 C          17.1008   70.4177   -7.9766 C.ar    1  UNL1        0.3323
     17 N          17.5218   70.3756   -9.2545 N.ar    1  UNL1       -0.2743
     18 C          18.8253   70.5472   -9.5470 C.ar    1  UNL1        0.2626
     19 C          19.7487   70.7770   -8.4978 C.ar    1  UNL1        0.0795
     20 C          19.2991   70.8187   -7.2256 C.ar    1  UNL1        0.0869
     21 O          15.9218   70.2615   -7.7283 O.2     1  UNL1       -0.2464
     22 O          19.2080   70.5045  -10.7029 O.2     1  UNL1       -0.2670
     23 H          16.8830   70.2179   -9.9678 H       1  UNL1        0.1734
     24 O          21.8417   73.9057   -3.7339 O.3     1  UNL1       -0.2703
     25 P          23.2495   73.4193   -4.3434 P.3     1  UNL1        0.2208
     26 O          24.1006   72.8884   -3.2558 O.2     1  UNL1       -0.5170
     27 O          22.9908   72.2632   -5.4346 O.3     1  UNL1       -0.4371
     28 O          23.9897   74.6634   -5.0466 O.3     1  UNL1       -0.2858
     29 C          22.9713   75.4731   -5.6356 C.3     1  UNL1        0.2704
     30 C          23.2665   75.6592   -7.1247 C.3     1  UNL1        0.1967
     31 C          24.6401   76.3185   -7.2821 C.3     1  UNL1        0.1715
     32 C          24.6657   77.6033   -6.4465 C.3     1  UNL1        0.1694
     33 C          24.2660   77.2690   -5.0073 C.3     1  UNL1        0.1761
     34 O          23.2670   74.3872   -7.7752 O.3     1  UNL1       -0.3775
     35 O          24.8670   76.6329   -8.6577 O.3     1  UNL1       -0.3794
     36 O          23.7466   78.5487   -6.9955 O.3     1  UNL1       -0.3794
     37 O          22.9403   76.7418   -4.9860 O.3     1  UNL1       -0.3258
     38 H          22.3878   74.0067   -7.6446 H       1  UNL1        0.2106
     39 H          24.8304   75.8001   -9.1449 H       1  UNL1        0.2105
     40 H          24.0332   78.7243   -7.9012 H       1  UNL1        0.2105
     41 C          24.3215   78.5397   -4.1562 C.3     1  UNL1        0.1693
     42 O          23.8201   79.6420   -4.9141 O.3     1  UNL1       -0.3794
     43 H          23.8714   80.4207   -4.3430 H       1  UNL1        0.2105
@<TRIPOS>BOND
     1    15    16   ar
     2    15    20   ar
     3    15     6    1
     4    16    17   ar
     5    16    21    2
     6    17    18   ar
     7    17    23    1
     8    18    19   ar
     9    18    22    2
    10    19    20   ar
    11     6     7    1
    12     6    11    1
    13     7     8    1
    14     7     9    1
    15     8    13    1
    16     9    10    1
    17     9    12    1
    18    10    11    1
    19    10     5    1
    20    12    14    1
    21     5     4    1
    22     4     1    1
    23     1     2    2
    24     1     3    1
    25     1    24    1
    26    24    25    1
    27    25    26    2
    28    25    27    1
    29    25    28    1
    30    28    29    1
    31    29    30    1
    32    29    37    1
    33    30    31    1
    34    30    34    1
    35    31    32    1
    36    31    35    1
    37    32    33    1
    38    32    36    1
    39    33    41    1
    40    33    37    1
    41    41    42    1
    42    34    38    1
    43    35    39    1
    44    36    40    1
    45    42    43    1
@<TRIPOS>MOLECULE
GDU
 43 45 0 0 0
SMALL
GASTEIGER

@<TRIPOS>ATOM
      1 P          17.6140   69.6663   -2.6127 P.3     1  UNL1        0.2189
      2 O          17.0761   68.3932   -2.0840 O.2     1  UNL1       -0.5170
      3 O          16.4402   70.7676   -2.6569 O.3     1  UNL1       -0.4371
      4 O          18.8008   70.1849   -1.6591 O.3     1  UNL1       -0.3112
      5 C          19.1680   71.4844   -2.1250 C.3     1  UNL1        0.1811
      6 C          21.2409   72.7970    0.5033 C.3     1  UNL1        0.2383
      7 C          21.4692   73.7598   -0.6900 C.3     1  UNL1        0.1895
      8 O          21.7534   75.0831   -0.2303 O.3     1  UNL1       -0.3779
      9 C          20.0995   73.7085   -1.4156 C.3     1  UNL1        0.1713
     10 C          19.4677   72.3908   -0.9297 C.3     1  UNL1        0.1764
     11 O          20.4181   71.7529   -0.0591 O.3     1  UNL1       -0.3308
     12 O          19.2928   74.8265   -1.0395 O.3     1  UNL1       -0.3794
     13 H          21.8849   75.6296   -1.0177 H       1  UNL1        0.2106
     14 H          19.7683   75.6211   -1.3174 H       1  UNL1        0.2105
     15 N          22.5130   72.2513    0.9792 N.ar    1  UNL1       -0.2551
     16 C          22.6173   70.9371    1.2445 C.ar    1  UNL1        0.3323
     17 N          23.7766   70.4094    1.6799 N.ar    1  UNL1       -0.2743
     18 C          24.8538   71.1959    1.8672 C.ar    1  UNL1        0.2626
     19 C          24.7570   72.5830    1.5973 C.ar    1  UNL1        0.0795
     20 C          23.5837   73.0855    1.1576 C.ar    1  UNL1        0.0869
     21 O          21.6542   70.2150    1.0799 O.2     1  UNL1       -0.2464
     22 O          25.9022   70.7200    2.2658 O.2     1  UNL1       -0.2670
     23 H          23.8351   69.4580    1.8623 H       1  UNL1        0.1734
     24 O          18.1833   69.4306   -4.1002 O.3     1  UNL1       -0.2703
     25 P          16.9510   69.6507   -5.1117 P.3     1  UNL1        0.2208
     26 O          15.9635   68.5640   -4.9296 O.2     1  UNL1       -0.5170
     27 O          16.2510   71.0683   -4.8039 O.3     1  UNL1       -0.4371
     28 O          17.4908   69.6381   -6.6278 O.3     1  UNL1       -0.2858
     29 C          17.6644   71.0010   -7.0178 C.3     1  UNL1        0.2704
     30 C          17.7206   71.0908   -8.5436 C.3     1  UNL1        0.1967
     31 C          18.8822   70.2308   -9.0511 C.3     1  UNL1        0.1715
     32 C          20.1625   70.6587   -8.3249 C.3     1  UNL1        0.1694
     33 C          19.9214   70.5997   -6.8145 C.3     1  UNL1        0.1761
     34 O          16.4927   70.6138   -9.0967 O.3     1  UNL1       -0.3775
     35 O          19.0400   70.4196  -10.4590 O.3     1  UNL1       -0.3794
     36 O          20.5060   71.9913   -8.7071 O.3     1  UNL1       -0.3794
     37 O          18.8759   71.5030   -6.4583 O.3     1  UNL1       -0.3258
     38 H          15.7906   71.1782   -8.7454 H       1  UNL1        0.2106
     39 H          18.2100   70.1501  -10.8722 H       1  UNL1        0.2105
     40 H          20.6425   71.9818   -9.6635 H       1  UNL1        0.2105
     41 C          21.2048   70.9923   -6.0792 C.3     1  UNL1        0.1693
     42 O          21.3610   72.4118   -6.1201 O.3     1  UNL1       -0.3794
     43 H          22.1788   72.6171   -5.6464 H       1  UNL1        0.2105
@<TRIPOS>BOND
     1    15    16   ar
     2    15    20   ar
     3    15     6    1
     4    16    17   ar
     5    16    21    2
     6    17    18   ar
     7    17    23    1
     8    18    19   ar
     9    18    22    2
    10    19    20   ar
    11     6     7    1
    12     6    11    1
    13     7     8    1
    14     7     9    1
    15     8    13    1
    16     9    10    1
    17     9    12    1
    18    10    11    1
    19    10     5    1
    20    12    14    1
    21     5     4    1
    22     4     1    1
    23     1     2    2
    24     1     3    1
    25     1    24    1
    26    24    25    1
    27    25    26    2
    28    25    27    1
    29    25    28    1
    30    28    29    1
    31    29    30    1
    32    29    37    1
    33    30    31    1
    34    30    34    1
    35    31    32    1
    36    31    35    1
    37    32    33    1
    38    32    36    1
    39    33    41    1
    40    33    37    1
    41    41    42    1
    42    34    38    1
    43    35    39    1
    44    36    40    1
    45    42    43    1
@<TRIPOS>MOLECULE
GDU
 43 45 0 0 0
SMALL
GASTEIGER

@<TRIPOS>ATOM
      1 P          22.4354   72.5471   -3.7699 P.3     1  UNL1        0.2189
      2 O          23.4548   72.4600   -4.8389 O.2     1  UNL1       -0.5170
      3 O          21.5805   73.8995   -3.9526 O.3     1  UNL1       -0.4371
      4 O          21.4541   71.2759   -3.8586 O.3     1  UNL1       -0.3112
      5 C          20.5368   71.3844   -2.7690 C.3     1  UNL1        0.1811
      6 C          18.0339   70.8694   -5.2984 C.3     1  UNL1        0.2383
      7 C          18.1305   69.5078   -4.5636 C.3     1  UNL1        0.1895
      8 O          16.8718   68.8305   -4.5775 O.3     1  UNL1       -0.3779
      9 C          18.5092   69.9419   -3.1237 C.3     1  UNL1        0.1713
     10 C          19.1031   71.3515   -3.3017 C.3     1  UNL1        0.1764
     11 O          19.0982   71.6463   -4.7093 O.3     1  UNL1       -0.3308
     12 O          17.3476   69.9825   -2.2924 O.3     1  UNL1       -0.3794
     13 H          16.9996   67.9949   -4.1070 H       1  UNL1        0.2106
     14 H          16.9890   69.0850   -2.2681 H       1  UNL1        0.2105
     15 N          18.2542   70.6991   -6.7355 N.ar    1  UNL1       -0.2551
     16 C          17.2024   70.5274   -7.5556 C.ar    1  UNL1        0.3323
     17 N          17.3772   70.3722   -8.8812 N.ar    1  UNL1       -0.2743
     18 C          18.6165   70.3765   -9.4087 C.ar    1  UNL1        0.2626
     19 C          19.7342   70.5506   -8.5563 C.ar    1  UNL1        0.0795
     20 C          19.5303   70.7084   -7.2311 C.ar    1  UNL1        0.0869
     21 O          16.0784   70.5217   -7.0944 O.2     1  UNL1       -0.2464
     22 O          18.7761   70.2313  -10.6079 O.2     1  UNL1       -0.2670
     23 H          16.6065   70.2537   -9.4588 H       1  UNL1        0.1734
     24 O          23.1645   72.5647   -2.3344 O.3     1  UNL1       -0.2703
     25 P          23.3863   74.1097   -1.9426 P.3     1  UNL1        0.2208
     26 O          24.0606   74.8095   -3.0583 O.2     1  UNL1       -0.5170
     27 O          21.9596   74.8016   -1.6599 O.3     1  UNL1       -0.4371
     28 O          24.2982   74.2034   -0.6198 O.3     1  UNL1       -0.2858
     29 C          23.4073   74.2707    0.4945 C.3     1  UNL1        0.2704
     30 C          24.0737   75.0442    1.6332 C.3     1  UNL1        0.1967
     31 C          25.3747   74.3356    2.0229 C.3     1  UNL1        0.1715
     32 C          25.0601   72.8669    2.3286 C.3     1  UNL1        0.1694
     33 C          24.3200   72.2575    1.1353 C.3     1  UNL1        0.1761
     34 O          24.3625   76.3756    1.2027 O.3     1  UNL1       -0.3775
     35 O          25.9336   74.9604    3.1804 O.3     1  UNL1       -0.3794
     36 O          24.2415   72.7866    3.4963 O.3     1  UNL1       -0.3794
     37 O          23.0899   72.9499    0.9273 O.3     1  UNL1       -0.3258
     38 H          23.5181   76.7800    0.9612 H       1  UNL1        0.2106
     39 H          26.1037   75.8817    2.9465 H       1  UNL1        0.2105
     40 H          24.7440   73.1859    4.2184 H       1  UNL1        0.2105
     41 C          24.0313   70.7812    1.4163 C.3     1  UNL1        0.1693
     42 O          24.9691   70.2872    2.3741 O.3     1  UNL1       -0.3794
     43 H          24.7527   69.3565    2.5235 H       1  UNL1        0.2105
@<TRIPOS>BOND
     1    15    16   ar
     2    15    20   ar
     3    15     6    1
     4    16    17   ar
     5    16    21    2
     6    17    18   ar
     7    17    23    1
     8    18    19   ar
     9    18    22    2
    10    19    20   ar
    11     6     7    1
    12     6    11    1
    13     7     8    1
    14     7     9    1
    15     8    13    1
    16     9    10    1
    17     9    12    1
    18    10    11    1
    19    10     5    1
    20    12    14    1
    21     5     4    1
    22     4     1    1
    23     1     2    2
    24     1     3    1
    25     1    24    1
    26    24    25    1
    27    25    26    2
    28    25    27    1
    29    25    28    1
    30    28    29    1
    31    29    30    1
    32    29    37    1
    33    30    31    1
    34    30    34    1
    35    31    32    1
    36    31    35    1
    37    32    33    1
    38    32    36    1
    39    33    41    1
    40    33    37    1
    41    41    42    1
    42    34    38    1
    43    35    39    1
    44    36    40    1
    45    42    43    1
@<TRIPOS>MOLECULE
GDU
 43 45 0 0 0
SMALL
GASTEIGER

@<TRIPOS>ATOM
      1 P          21.6675   72.7196   -1.6123 P.3     1  UNL1        0.2189
      2 O          22.9102   71.9386   -1.4244 O.2     1  UNL1       -0.5170
      3 O          21.9325   74.2554   -1.2072 O.3     1  UNL1       -0.4371
      4 O          21.2122   72.6420   -3.1530 O.3     1  UNL1       -0.3112
      5 C          22.0888   71.7162   -3.7973 C.3     1  UNL1        0.1811
      6 C          20.5844   72.1105   -7.0390 C.3     1  UNL1        0.2383
      7 C          20.6229   73.5443   -6.4509 C.3     1  UNL1        0.1895
      8 O          20.7643   74.5174   -7.4883 O.3     1  UNL1       -0.3779
      9 C          21.8920   73.4964   -5.5608 C.3     1  UNL1        0.1713
     10 C          22.1107   71.9942   -5.3014 C.3     1  UNL1        0.1764
     11 O          21.0376   71.2853   -5.9449 O.3     1  UNL1       -0.3308
     12 O          23.0087   74.0593   -6.2522 O.3     1  UNL1       -0.3794
     13 H          20.7812   75.3835   -7.0578 H       1  UNL1        0.2106
     14 H          22.7872   74.9819   -6.4377 H       1  UNL1        0.2105
     15 N          19.2211   71.7471   -7.4289 N.ar    1  UNL1       -0.2551
     16 C          19.0245   70.7896   -8.3525 C.ar    1  UNL1        0.3323
     17 N          17.7812   70.4342   -8.7261 N.ar    1  UNL1       -0.2743
     18 C          16.7084   71.0425   -8.1847 C.ar    1  UNL1        0.2626
     19 C          16.9004   72.0569   -7.2149 C.ar    1  UNL1        0.0795
     20 C          18.1579   72.3910   -6.8552 C.ar    1  UNL1        0.0869
     21 O          19.9825   70.2316   -8.8494 O.2     1  UNL1       -0.2464
     22 O          15.5827   70.7248   -8.5258 O.2     1  UNL1       -0.2670
     23 H          17.6577   69.7381   -9.3910 H       1  UNL1        0.1734
     24 O          20.5063   72.1121   -0.6770 O.3     1  UNL1       -0.2703
     25 P          21.1732   71.8060    0.7554 P.3     1  UNL1        0.2208
     26 O          20.2080   72.1318    1.8284 O.2     1  UNL1       -0.5170
     27 O          21.5652   70.2462    0.8423 O.3     1  UNL1       -0.4371
     28 O          22.4983   72.7018    0.9340 O.3     1  UNL1       -0.2858
     29 C          22.6480   72.9468    2.3331 C.3     1  UNL1        0.2704
     30 C          23.0207   74.4133    2.5561 C.3     1  UNL1        0.1967
     31 C          24.3249   74.7151    1.8115 C.3     1  UNL1        0.1715
     32 C          25.3855   73.6986    2.2493 C.3     1  UNL1        0.1694
     33 C          24.8336   72.2852    2.0475 C.3     1  UNL1        0.1761
     34 O          21.9780   75.2533    2.0577 O.3     1  UNL1       -0.3775
     35 O          24.7640   76.0376    2.1288 O.3     1  UNL1       -0.3794
     36 O          25.7014   73.9012    3.6274 O.3     1  UNL1       -0.3794
     37 O          23.6714   72.1025    2.8548 O.3     1  UNL1       -0.3258
     38 H          21.1769   75.0245    2.5483 H       1  UNL1        0.2106
     39 H          24.0636   76.6399    1.8480 H       1  UNL1        0.2105
     40 H          26.0386   74.8030    3.7077 H       1  UNL1        0.2105
     41 C          25.8980   71.2618    2.4496 C.3     1  UNL1        0.1693
     42 O          25.2822   69.9878    2.6467 O.3     1  UNL1       -0.3794
     43 H          25.9852   69.3729    2.8975 H       1  UNL1        0.2105
@<TRIPOS>BOND
     1    15    16   ar
     2    15    20   ar
     3    15     6    1
     4    16    17   ar
     5    16    21    2
     6    17    18   ar
     7    17    23    1
     8    18    19   ar
     9    18    22    2
    10    19    20   ar
    11     6     7    1
    12     6    11    1
    13     7     8    1
    14     7     9    1
    15     8    13    1
    16     9    10    1
    17     9    12    1
    18    10    11    1
    19    10     5    1
    20    12    14    1
    21     5     4    1
    22     4     1    1
    23     1     2    2
    24     1     3    1
    25     1    24    1
    26    24    25    1
    27    25    26    2
    28    25    27    1
    29    25    28    1
    30    28    29    1
    31    29    30    1
    32    29    37    1
    33    30    31    1
    34    30    34    1
    35    31    32    1
    36    31    35    1
    37    32    33    1
    38    32    36    1
    39    33    41    1
    40    33    37    1
    41    41    42    1
    42    34    38    1
    43    35    39    1
    44    36    40    1
    45    42    43    1
@<TRIPOS>MOLECULE
GDU
 43 45 0 0 0
SMALL
GASTEIGER

@<TRIPOS>ATOM
      1 P          21.8085   71.2872   -2.6100 P.3     1  UNL1        0.2189
      2 O          21.6409   70.8937   -1.1935 O.2     1  UNL1       -0.5170
      3 O          23.2728   70.8508   -3.1185 O.3     1  UNL1       -0.4371
      4 O          20.6898   70.5574   -3.5061 O.3     1  UNL1       -0.3112
      5 C          19.5706   70.3132   -2.6526 C.3     1  UNL1        0.1811
      6 C          17.5529   70.5061   -5.6223 C.3     1  UNL1        0.2383
      7 C          17.3258   69.0679   -5.0903 C.3     1  UNL1        0.1895
      8 O          16.0148   68.6034   -5.4198 O.3     1  UNL1       -0.3779
      9 C          17.4757   69.2606   -3.5588 C.3     1  UNL1        0.1713
     10 C          18.2741   70.5704   -3.4227 C.3     1  UNL1        0.1764
     11 O          18.5780   71.0295   -4.7513 O.3     1  UNL1       -0.3308
     12 O          16.1923   69.3828   -2.9426 O.3     1  UNL1       -0.3794
     13 H          15.9383   67.7077   -5.0625 H       1  UNL1        0.2106
     14 H          15.7201   68.5565   -3.1127 H       1  UNL1        0.2105
     15 N          18.0198   70.4776   -7.0094 N.ar    1  UNL1       -0.2551
     16 C          17.1266   70.4141   -8.0125 C.ar    1  UNL1        0.3323
     17 N          17.5294   70.3903   -9.2967 N.ar    1  UNL1       -0.2743
     18 C          18.8418   70.4198   -9.5983 C.ar    1  UNL1        0.2626
     19 C          19.7943   70.4808   -8.5518 C.ar    1  UNL1        0.0795
     20 C          19.3629   70.5079   -7.2729 C.ar    1  UNL1        0.0869
     21 O          15.9393   70.3874   -7.7560 O.2     1  UNL1       -0.2464
     22 O          19.2075   70.3934  -10.7602 O.2     1  UNL1       -0.2670
     23 H          16.8707   70.3487  -10.0082 H       1  UNL1        0.1734
     24 O          21.6487   72.8836   -2.7451 O.3     1  UNL1       -0.2703
     25 P          22.2220   73.2891   -4.1931 P.3     1  UNL1        0.2208
     26 O          23.1552   72.2423   -4.6648 O.2     1  UNL1       -0.5170
     27 O          21.0008   73.4272   -5.2341 O.3     1  UNL1       -0.4371
     28 O          22.9988   74.6948   -4.0896 O.3     1  UNL1       -0.2858
     29 C          24.2024   74.4511   -3.3604 C.3     1  UNL1        0.2704
     30 C          24.1760   75.2461   -2.0540 C.3     1  UNL1        0.1967
     31 C          24.0333   76.7360   -2.3798 C.3     1  UNL1        0.1715
     32 C          25.1420   77.1313   -3.3617 C.3     1  UNL1        0.1694
     33 C          25.0937   76.1939   -4.5707 C.3     1  UNL1        0.1761
     34 O          23.0691   74.8207   -1.2571 O.3     1  UNL1       -0.3775
     35 O          24.1548   77.5035   -1.1803 O.3     1  UNL1       -0.3794
     36 O          26.4121   77.0227   -2.7172 O.3     1  UNL1       -0.3794
     37 O          25.3220   74.8504   -4.1476 O.3     1  UNL1       -0.3258
     38 H          23.1967   73.8782   -1.0828 H       1  UNL1        0.2106
     39 H          23.4476   77.2141   -0.5901 H       1  UNL1        0.2105
     40 H          26.3946   77.6240   -1.9613 H       1  UNL1        0.2105
     41 C          26.1753   76.6017   -5.5737 C.3     1  UNL1        0.1693
     42 O          25.7341   76.2985   -6.8982 O.3     1  UNL1       -0.3794
     43 H          26.4421   76.5707   -7.4982 H       1  UNL1        0.2105
@<TRIPOS>BOND
     1    15    16   ar
     2    15    20   ar
     3    15     6    1
     4    16    17   ar
     5    16    21    2
     6    17    18   ar
     7    17    23    1
     8    18    19   ar
     9    18    22    2
    10    19    20   ar
    11     6     7    1
    12     6    11    1
    13     7     8    1
    14     7     9    1
    15     8    13    1
    16     9    10    1
    17     9    12    1
    18    10    11    1
    19    10     5    1
    20    12    14    1
    21     5     4    1
    22     4     1    1
    23     1     2    2
    24     1     3    1
    25     1    24    1
    26    24    25    1
    27    25    26    2
    28    25    27    1
    29    25    28    1
    30    28    29    1
    31    29    30    1
    32    29    37    1
    33    30    31    1
    34    30    34    1
    35    31    32    1
    36    31    35    1
    37    32    33    1
    38    32    36    1
    39    33    41    1
    40    33    37    1
    41    41    42    1
    42    34    38    1
    43    35    39    1
    44    36    40    1
    45    42    43    1
@<TRIPOS>MOLECULE
GDU
 43 45 0 0 0
SMALL
GASTEIGER

@<TRIPOS>ATOM
      1 P          21.4383   71.4074   -0.3424 P.3     1  UNL1        0.2189
      2 O          21.2298   70.2922    0.6076 O.2     1  UNL1       -0.5170
      3 O          22.5375   70.9798   -1.4387 O.3     1  UNL1       -0.4371
      4 O          20.0508   71.7514   -1.0796 O.3     1  UNL1       -0.3112
      5 C          20.1121   71.1549   -2.3761 C.3     1  UNL1        0.1811
      6 C          17.7714   70.7417   -5.0739 C.3     1  UNL1        0.2383
      7 C          17.8522   69.3427   -4.4112 C.3     1  UNL1        0.1895
      8 O          16.6103   68.6464   -4.5370 O.3     1  UNL1       -0.3779
      9 C          18.1377   69.7011   -2.9295 C.3     1  UNL1        0.1713
     10 C          18.7128   71.1282   -2.9938 C.3     1  UNL1        0.1764
     11 O          18.7840   71.5018   -4.3807 O.3     1  UNL1       -0.3308
     12 O          16.9292   69.6754   -2.1675 O.3     1  UNL1       -0.3794
     13 H          16.7271   67.7878   -4.1068 H       1  UNL1        0.2106
     14 H          16.5878   68.7721   -2.2142 H       1  UNL1        0.2105
     15 N          18.0783   70.6565   -6.5027 N.ar    1  UNL1       -0.2551
     16 C          17.0789   70.5235   -7.3926 C.ar    1  UNL1        0.3323
     17 N          17.3337   70.4465   -8.7121 N.ar    1  UNL1       -0.2743
     18 C          18.6019   70.4918   -9.1636 C.ar    1  UNL1        0.2626
     19 C          19.6650   70.6259   -8.2373 C.ar    1  UNL1        0.0795
     20 C          19.3812   70.7052   -6.9199 C.ar    1  UNL1        0.0869
     21 O          15.9298   70.4817   -7.0004 O.2     1  UNL1       -0.2464
     22 O          18.8338   70.4174  -10.3574 O.2     1  UNL1       -0.2670
     23 H          16.5999   70.3551   -9.3405 H       1  UNL1        0.1734
     24 O          21.9576   72.7038    0.4589 O.3     1  UNL1       -0.2703
     25 P          21.8572   72.3544    2.0267 P.3     1  UNL1        0.2208
     26 O          20.4792   71.9223    2.3483 O.2     1  UNL1       -0.5170
     27 O          22.8872   71.1673    2.3787 O.3     1  UNL1       -0.4371
     28 O          22.2275   73.6591    2.8931 O.3     1  UNL1       -0.2858
     29 C          23.4271   73.3566    3.6067 C.3     1  UNL1        0.2704
     30 C          23.2075   73.6044    5.0999 C.3     1  UNL1        0.1967
     31 C          22.8084   75.0685    5.3089 C.3     1  UNL1        0.1715
     32 C          23.8628   75.9630    4.6474 C.3     1  UNL1        0.1694
     33 C          24.0314   75.5372    3.1869 C.3     1  UNL1        0.1761
     34 O          22.1674   72.7501    5.5789 O.3     1  UNL1       -0.3775
     35 O          22.7431   75.3532    6.7079 O.3     1  UNL1       -0.3794
     36 O          25.1063   75.8259    5.3367 O.3     1  UNL1       -0.3794
     37 O          24.4842   74.1854    3.1287 O.3     1  UNL1       -0.3258
     38 H          22.4577   71.8415    5.4209 H       1  UNL1        0.2106
     39 H          22.0787   74.7615    7.0832 H       1  UNL1        0.2105
     40 H          24.9514   76.0986    6.2504 H       1  UNL1        0.2105
     41 C          25.0576   76.4468    2.5074 C.3     1  UNL1        0.1693
     42 O          26.2860   75.7365    2.3411 O.3     1  UNL1       -0.3794
     43 H          26.9037   76.3430    1.9100 H       1  UNL1        0.2105
@<TRIPOS>BOND
     1    15    16   ar
     2    15    20   ar
     3    15     6    1
     4    16    17   ar
     5    16    21    2
     6    17    18   ar
     7    17    23    1
     8    18    19   ar
     9    18    22    2
    10    19    20   ar
    11     6     7    1
    12     6    11    1
    13     7     8    1
    14     7     9    1
    15     8    13    1
    16     9    10    1
    17     9    12    1
    18    10    11    1
    19    10     5    1
    20    12    14    1
    21     5     4    1
    22     4     1    1
    23     1     2    2
    24     1     3    1
    25     1    24    1
    26    24    25    1
    27    25    26    2
    28    25    27    1
    29    25    28    1
    30    28    29    1
    31    29    30    1
    32    29    37    1
    33    30    31    1
    34    30    34    1
    35    31    32    1
    36    31    35    1
    37    32    33    1
    38    32    36    1
    39    33    41    1
    40    33    37    1
    41    41    42    1
    42    34    38    1
    43    35    39    1
    44    36    40    1
    45    42    43    1
@<TRIPOS>MOLECULE
GDU
 43 45 0 0 0
SMALL
GASTEIGER

@<TRIPOS>ATOM
      1 P          20.5273   71.9942   -1.2024 P.3     1  UNL1        0.2189
      2 O          19.9759   73.0532   -0.3284 O.2     1  UNL1       -0.5170
      3 O          20.4804   70.5823   -0.4297 O.3     1  UNL1       -0.4371
      4 O          19.6518   71.8987   -2.5483 O.3     1  UNL1       -0.3112
      5 C          18.9404   70.6613   -2.4921 C.3     1  UNL1        0.1811
      6 C          17.1754   70.5493   -5.6226 C.3     1  UNL1        0.2383
      7 C          17.0702   69.1069   -5.0648 C.3     1  UNL1        0.1895
      8 O          15.8541   68.4847   -5.4859 O.3     1  UNL1       -0.3779
      9 C          17.0654   69.3503   -3.5331 C.3     1  UNL1        0.1713
     10 C          17.6936   70.7474   -3.3743 C.3     1  UNL1        0.1764
     11 O          18.0553   71.2088   -4.6875 O.3     1  UNL1       -0.3308
     12 O          15.7284   69.3354   -3.0291 O.3     1  UNL1       -0.3794
     13 H          15.8507   67.5945   -5.1072 H       1  UNL1        0.2106
     14 H          15.3705   68.4558   -3.2106 H       1  UNL1        0.2105
     15 N          17.7594   70.5443   -6.9648 N.ar    1  UNL1       -0.2551
     16 C          16.9577   70.4543   -8.0406 C.ar    1  UNL1        0.3323
     17 N          17.4690   70.4511   -9.2858 N.ar    1  UNL1       -0.2743
     18 C          18.8004   70.5287   -9.4743 C.ar    1  UNL1        0.2626
     19 C          19.6575   70.6183   -8.3503 C.ar    1  UNL1        0.0795
     20 C          19.1181   70.6236   -7.1128 C.ar    1  UNL1        0.0869
     21 O          15.7546   70.3841   -7.8863 O.2     1  UNL1       -0.2464
     22 O          19.2644   70.5211  -10.6009 O.2     1  UNL1       -0.2670
     23 H          16.8752   70.3898  -10.0509 H       1  UNL1        0.1734
     24 O          22.0526   72.3490   -1.5769 O.3     1  UNL1       -0.2703
     25 P          22.0028   73.5438   -2.6540 P.3     1  UNL1        0.2208
     26 O          21.6824   72.9914   -3.9886 O.2     1  UNL1       -0.5170
     27 O          20.8688   74.6045   -2.2264 O.3     1  UNL1       -0.4371
     28 O          23.4327   74.2806   -2.7061 O.3     1  UNL1       -0.2858
     29 C          23.2023   75.5988   -3.2051 C.3     1  UNL1        0.2704
     30 C          24.0188   75.8102   -4.4810 C.3     1  UNL1        0.1967
     31 C          25.5030   75.6040   -4.1630 C.3     1  UNL1        0.1715
     32 C          25.8829   76.5115   -2.9875 C.3     1  UNL1        0.1694
     33 C          24.9255   76.2452   -1.8234 C.3     1  UNL1        0.1761
     34 O          23.6057   74.8706   -5.4748 O.3     1  UNL1       -0.3775
     35 O          26.2904   75.9411   -5.3070 O.3     1  UNL1       -0.3794
     36 O          25.7863   77.8788   -3.3888 O.3     1  UNL1       -0.3794
     37 O          23.5895   76.5528   -2.2189 O.3     1  UNL1       -0.3258
     38 H          22.6664   75.0318   -5.6379 H       1  UNL1        0.2106
     39 H          26.0102   75.3558   -6.0220 H       1  UNL1        0.2105
     40 H          26.4001   77.9984   -4.1252 H       1  UNL1        0.2105
     41 C          25.3175   77.1220   -0.6320 C.3     1  UNL1        0.1693
     42 O          25.3364   76.3290    0.5562 O.3     1  UNL1       -0.3794
     43 H          25.5880   76.9174    1.2814 H       1  UNL1        0.2105
@<TRIPOS>BOND
     1    15    16   ar
     2    15    20   ar
     3    15     6    1
     4    16    17   ar
     5    16    21    2
     6    17    18   ar
     7    17    23    1
     8    18    19   ar
     9    18    22    2
    10    19    20   ar
    11     6     7    1
    12     6    11    1
    13     7     8    1
    14     7     9    1
    15     8    13    1
    16     9    10    1
    17     9    12    1
    18    10    11    1
    19    10     5    1
    20    12    14    1
    21     5     4    1
    22     4     1    1
    23     1     2    2
    24     1     3    1
    25     1    24    1
    26    24    25    1
    27    25    26    2
    28    25    27    1
    29    25    28    1
    30    28    29    1
    31    29    30    1
    32    29    37    1
    33    30    31    1
    34    30    34    1
    35    31    32    1
    36    31    35    1
    37    32    33    1
    38    32    36    1
    39    33    41    1
    40    33    37    1
    41    41    42    1
    42    34    38    1
    43    35    39    1
    44    36    40    1
    45    42    43    1
@<TRIPOS>MOLECULE
GDU
 43 45 0 0 0
SMALL
GASTEIGER

@<TRIPOS>ATOM
      1 P          22.5894   71.4536   -2.7561 P.3     1  UNL1        0.2189
      2 O          22.1843   72.8767   -2.7382 O.2     1  UNL1       -0.5170
      3 O          24.0226   71.3127   -3.4766 O.3     1  UNL1       -0.4371
      4 O          22.6908   70.9051   -1.2476 O.3     1  UNL1       -0.3112
      5 C          21.3788   70.9863   -0.6887 C.3     1  UNL1        0.1811
      6 C          23.1066   71.8464    2.3448 C.3     1  UNL1        0.2383
      7 C          22.5014   73.1846    1.8489 C.3     1  UNL1        0.1895
      8 O          22.1882   74.0415    2.9494 O.3     1  UNL1       -0.3779
      9 C          21.2103   72.7113    1.1317 C.3     1  UNL1        0.1713
     10 C          21.4787   71.2275    0.8186 C.3     1  UNL1        0.1764
     11 O          22.8086   70.9248    1.2746 O.3     1  UNL1       -0.3308
     12 O          20.0797   72.8509    1.9944 O.3     1  UNL1       -0.3794
     13 H          21.8178   74.8527    2.5745 H       1  UNL1        0.2106
     14 H          19.9997   73.7920    2.2012 H       1  UNL1        0.2105
     15 N          24.5532   71.9699    2.5313 N.ar    1  UNL1       -0.2551
     16 C          25.3329   70.8780    2.4408 C.ar    1  UNL1        0.3323
     17 N          26.6661   70.9647    2.6046 N.ar    1  UNL1       -0.2743
     18 C          27.2424   72.1521    2.8732 C.ar    1  UNL1        0.2626
     19 C          26.4330   73.3098    2.9771 C.ar    1  UNL1        0.0795
     20 C          25.0990   73.1954    2.8042 C.ar    1  UNL1        0.0869
     21 O          24.8274   69.8000    2.1985 O.2     1  UNL1       -0.2464
     22 O          28.4486   72.2308    3.0263 O.2     1  UNL1       -0.2670
     23 H          27.2140   70.1670    2.5315 H       1  UNL1        0.1734
     24 O          21.4955   70.5955   -3.5682 O.3     1  UNL1       -0.2703
     25 P          20.8759   71.5702   -4.6889 P.3     1  UNL1        0.2208
     26 O          20.1267   72.6637   -4.0315 O.2     1  UNL1       -0.5170
     27 O          22.0672   72.1939   -5.5753 O.3     1  UNL1       -0.4371
     28 O          19.8826   70.7337   -5.6395 O.3     1  UNL1       -0.2858
     29 C          18.9548   71.6672   -6.1940 C.3     1  UNL1        0.2704
     30 C          17.5323   71.2661   -5.8006 C.3     1  UNL1        0.1967
     31 C          17.2517   69.8521   -6.3185 C.3     1  UNL1        0.1715
     32 C          17.5482   69.8130   -7.8219 C.3     1  UNL1        0.1694
     33 C          18.9714   70.3229   -8.0620 C.3     1  UNL1        0.1761
     34 O          17.4043   71.2905   -4.3778 O.3     1  UNL1       -0.3775
     35 O          15.8809   69.5196   -6.0882 O.3     1  UNL1       -0.3794
     36 O          16.6149   70.6431   -8.5147 O.3     1  UNL1       -0.3794
     37 O          19.0808   71.6733   -7.6141 O.3     1  UNL1       -0.3258
     38 H          17.5961   72.1952   -4.0959 H       1  UNL1        0.2106
     39 H          15.7375   69.5684   -5.1347 H       1  UNL1        0.2105
     40 H          15.7351   70.2891   -8.3306 H       1  UNL1        0.2105
     41 C          19.2899   70.2558   -9.5573 C.3     1  UNL1        0.1693
     42 O          18.5927   71.2998  -10.2393 O.3     1  UNL1       -0.3794
     43 H          18.8204   71.2229  -11.1760 H       1  UNL1        0.2105
@<TRIPOS>BOND
     1    15    16   ar
     2    15    20   ar
     3    15     6    1
     4    16    17   ar
     5    16    21    2
     6    17    18   ar
     7    17    23    1
     8    18    19   ar
     9    18    22    2
    10    19    20   ar
    11     6     7    1
    12     6    11    1
    13     7     8    1
    14     7     9    1
    15     8    13    1
    16     9    10    1
    17     9    12    1
    18    10    11    1
    19    10     5    1
    20    12    14    1
    21     5     4    1
    22     4     1    1
    23     1     2    2
    24     1     3    1
    25     1    24    1
    26    24    25    1
    27    25    26    2
    28    25    27    1
    29    25    28    1
    30    28    29    1
    31    29    30    1
    32    29    37    1
    33    30    31    1
    34    30    34    1
    35    31    32    1
    36    31    35    1
    37    32    33    1
    38    32    36    1
    39    33    41    1
    40    33    37    1
    41    41    42    1
    42    34    38    1
    43    35    39    1
    44    36    40    1
    45    42    43    1
@<TRIPOS>MOLECULE
GDU
 43 45 0 0 0
SMALL
GASTEIGER

@<TRIPOS>ATOM
      1 P          23.5631   72.1634   -3.3877 P.3     1  UNL1        0.2189
      2 O          24.3141   72.9097   -4.4214 O.2     1  UNL1       -0.5170
      3 O          24.3387   70.7946   -3.0443 O.3     1  UNL1       -0.4371
      4 O          23.4436   73.0605   -2.0581 O.3     1  UNL1       -0.3112
      5 C          22.3682   72.5195   -1.2892 C.3     1  UNL1        0.1811
      6 C          24.3115   71.7310    1.6313 C.3     1  UNL1        0.2383
      7 C          22.8908   72.0252    2.1771 C.3     1  UNL1        0.1895
      8 O          22.6283   71.2592    3.3551 O.3     1  UNL1       -0.3779
      9 C          21.9893   71.5613    1.0034 C.3     1  UNL1        0.1713
     10 C          22.9265   71.5804   -0.2184 C.3     1  UNL1        0.1764
     11 O          24.2077   72.0564    0.2288 O.3     1  UNL1       -0.3308
     12 O          21.4962   70.2418    1.2436 O.3     1  UNL1       -0.3794
     13 H          21.7334   71.4878    3.6427 H       1  UNL1        0.2106
     14 H          20.9670   70.2833    2.0516 H       1  UNL1        0.2105
     15 N          25.3049   72.5835    2.2864 N.ar    1  UNL1       -0.2551
     16 C          26.4761   72.0570    2.6856 C.ar    1  UNL1        0.3323
     17 N          27.4079   72.8198    3.2872 N.ar    1  UNL1       -0.2743
     18 C          27.1762   74.1280    3.5088 C.ar    1  UNL1        0.2626
     19 C          25.9446   74.6950    3.0989 C.ar    1  UNL1        0.0795
     20 C          25.0293   73.9083    2.4940 C.ar    1  UNL1        0.0869
     21 O          26.6996   70.8786    2.4921 O.2     1  UNL1       -0.2464
     22 O          28.0171   74.8182    4.0575 O.2     1  UNL1       -0.2670
     23 H          28.2494   72.4241    3.5649 H       1  UNL1        0.1734
     24 O          22.0898   71.8200   -3.9391 O.3     1  UNL1       -0.2703
     25 P          21.8598   72.7242   -5.2504 P.3     1  UNL1        0.2208
     26 O          22.0186   74.1525   -4.8985 O.2     1  UNL1       -0.5170
     27 O          22.9429   72.3252   -6.3738 O.3     1  UNL1       -0.4371
     28 O          20.3770   72.4733   -5.8233 O.3     1  UNL1       -0.2858
     29 C          20.3377   71.1267   -6.2976 C.3     1  UNL1        0.2704
     30 C          19.8262   71.1094   -7.7390 C.3     1  UNL1        0.1967
     31 C          18.4301   71.7382   -7.7801 C.3     1  UNL1        0.1715
     32 C          17.5380   71.0180   -6.7627 C.3     1  UNL1        0.1694
     33 C          18.2228   71.0442   -5.3939 C.3     1  UNL1        0.1761
     34 O          20.7145   71.8575   -8.5711 O.3     1  UNL1       -0.3775
     35 O          17.8783   71.5969   -9.0909 O.3     1  UNL1       -0.3794
     36 O          17.3372   69.6657   -7.1761 O.3     1  UNL1       -0.3794
     37 O          19.4713   70.3572   -5.4671 O.3     1  UNL1       -0.3258
     38 H          21.5802   71.4313   -8.5091 H       1  UNL1        0.2106
     39 H          18.4759   72.0529   -9.6968 H       1  UNL1        0.2105
     40 H          16.9103   69.6983   -8.0421 H       1  UNL1        0.2105
     41 C          17.3244   70.3573   -4.3629 C.3     1  UNL1        0.1693
     42 O          17.7581   69.0088   -4.1775 O.3     1  UNL1       -0.3794
     43 H          17.1680   68.6127   -3.5216 H       1  UNL1        0.2105
@<TRIPOS>BOND
     1    15    16   ar
     2    15    20   ar
     3    15     6    1
     4    16    17   ar
     5    16    21    2
     6    17    18   ar
     7    17    23    1
     8    18    19   ar
     9    18    22    2
    10    19    20   ar
    11     6     7    1
    12     6    11    1
    13     7     8    1
    14     7     9    1
    15     8    13    1
    16     9    10    1
    17     9    12    1
    18    10    11    1
    19    10     5    1
    20    12    14    1
    21     5     4    1
    22     4     1    1
    23     1     2    2
    24     1     3    1
    25     1    24    1
    26    24    25    1
    27    25    26    2
    28    25    27    1
    29    25    28    1
    30    28    29    1
    31    29    30    1
    32    29    37    1
    33    30    31    1
    34    30    34    1
    35    31    32    1
    36    31    35    1
    37    32    33    1
    38    32    36    1
    39    33    41    1
    40    33    37    1
    41    41    42    1
    42    34    38    1
    43    35    39    1
    44    36    40    1
    45    42    43    1
@<TRIPOS>MOLECULE
GDU
 43 45 0 0 0
SMALL
GASTEIGER

@<TRIPOS>ATOM
      1 P          23.4935   71.9156   -3.0536 P.3     1  UNL1        0.2189
      2 O          24.1510   73.0120   -3.7988 O.2     1  UNL1       -0.5170
      3 O          24.4179   70.5983   -3.1107 O.3     1  UNL1       -0.4371
      4 O          23.2836   72.3579   -1.5216 O.3     1  UNL1       -0.3112
      5 C          24.0601   71.4638   -0.7227 C.3     1  UNL1        0.1811
      6 C          22.7527   71.7964    2.6100 C.3     1  UNL1        0.2383
      7 C          21.6631   72.4198    1.7006 C.3     1  UNL1        0.1895
      8 O          20.3631   72.2443    2.2686 O.3     1  UNL1       -0.3779
      9 C          21.8140   71.5915    0.3982 C.3     1  UNL1        0.1713
     10 C          23.2383   71.0123    0.4859 C.3     1  UNL1        0.1764
     11 O          23.8331   71.5132    1.6957 O.3     1  UNL1       -0.3308
     12 O          20.8426   70.5443    0.3567 O.3     1  UNL1       -0.3794
     13 H          19.7343   72.6525    1.6573 H       1  UNL1        0.2106
     14 H          19.9736   70.9679    0.3631 H       1  UNL1        0.2105
     15 N          23.1806   72.7507    3.6343 N.ar    1  UNL1       -0.2551
     16 C          24.1285   73.6594    3.3447 C.ar    1  UNL1        0.3323
     17 N          24.5373   74.5503    4.2673 N.ar    1  UNL1       -0.2743
     18 C          24.0071   74.5388    5.5054 C.ar    1  UNL1        0.2626
     19 C          23.0118   73.5836    5.8264 C.ar    1  UNL1        0.0795
     20 C          22.6171   72.7044    4.8811 C.ar    1  UNL1        0.0869
     21 O          24.6158   73.6822    2.2320 O.2     1  UNL1       -0.2464
     22 O          24.3799   75.3417    6.3426 O.2     1  UNL1       -0.2670
     23 H          25.2195   75.2019    4.0396 H       1  UNL1        0.1734
     24 O          22.0640   71.5957   -3.7219 O.3     1  UNL1       -0.2703
     25 P          21.8873   72.6139   -4.9556 P.3     1  UNL1        0.2208
     26 O          22.0044   74.0056   -4.4670 O.2     1  UNL1       -0.5170
     27 O          23.0332   72.3324   -6.0518 O.3     1  UNL1       -0.4371
     28 O          20.4403   72.3997   -5.6266 O.3     1  UNL1       -0.2858
     29 C          20.4412   71.0949   -6.2074 C.3     1  UNL1        0.2704
     30 C          19.9434   71.1798   -7.6511 C.3     1  UNL1        0.1967
     31 C          18.5314   71.7736   -7.6575 C.3     1  UNL1        0.1715
     32 C          17.6497   70.9514   -6.7108 C.3     1  UNL1        0.1694
     33 C          18.3212   70.8855   -5.3368 C.3     1  UNL1        0.1761
     34 O          20.8188   72.0149   -8.4110 O.3     1  UNL1       -0.3775
     35 O          17.9954   71.7235   -8.9814 O.3     1  UNL1       -0.3794
     36 O          17.4888   69.6318   -7.2331 O.3     1  UNL1       -0.3794
     37 O          19.5882   70.2392   -5.4507 O.3     1  UNL1       -0.3258
     38 H          21.6950   71.6078   -8.3735 H       1  UNL1        0.2106
     39 H          18.5861   72.2419   -9.5422 H       1  UNL1        0.2105
     40 H          17.0690   69.7226   -8.0984 H       1  UNL1        0.2105
     41 C          17.4321   70.0952   -4.3739 C.3     1  UNL1        0.1693
     42 O          18.1386   69.8668   -3.1534 O.3     1  UNL1       -0.3794
     43 H          17.5448   69.3680   -2.5755 H       1  UNL1        0.2105
@<TRIPOS>BOND
     1    15    16   ar
     2    15    20   ar
     3    15     6    1
     4    16    17   ar
     5    16    21    2
     6    17    18   ar
     7    17    23    1
     8    18    19   ar
     9    18    22    2
    10    19    20   ar
    11     6     7    1
    12     6    11    1
    13     7     8    1
    14     7     9    1
    15     8    13    1
    16     9    10    1
    17     9    12    1
    18    10    11    1
    19    10     5    1
    20    12    14    1
    21     5     4    1
    22     4     1    1
    23     1     2    2
    24     1     3    1
    25     1    24    1
    26    24    25    1
    27    25    26    2
    28    25    27    1
    29    25    28    1
    30    28    29    1
    31    29    30    1
    32    29    37    1
    33    30    31    1
    34    30    34    1
    35    31    32    1
    36    31    35    1
    37    32    33    1
    38    32    36    1
    39    33    41    1
    40    33    37    1
    41    41    42    1
    42    34    38    1
    43    35    39    1
    44    36    40    1
    45    42    43    1
@<TRIPOS>MOLECULE
GDU
 43 45 0 0 0
SMALL
GASTEIGER

@<TRIPOS>ATOM
      1 P          20.3039   72.0097   -1.3881 P.3     1  UNL1        0.2189
      2 O          19.6099   72.9018   -0.4331 O.2     1  UNL1       -0.5170
      3 O          20.6046   70.5953   -0.6795 O.3     1  UNL1       -0.4371
      4 O          19.3729   71.7762   -2.6787 O.3     1  UNL1       -0.3112
      5 C          18.5054   70.6838   -2.3709 C.3     1  UNL1        0.1811
      6 C          16.9288   70.4827   -5.5960 C.3     1  UNL1        0.2383
      7 C          16.8818   69.0331   -5.0488 C.3     1  UNL1        0.1895
      8 O          15.7319   68.3399   -5.5393 O.3     1  UNL1       -0.3779
      9 C          16.7762   69.2664   -3.5192 C.3     1  UNL1        0.1713
     10 C          17.3071   70.6985   -3.3216 C.3     1  UNL1        0.1764
     11 O          17.7126   71.1892   -4.6112 O.3     1  UNL1       -0.3308
     12 O          15.4166   69.1662   -3.0912 O.3     1  UNL1       -0.3794
     13 H          15.7623   67.4489   -5.1638 H       1  UNL1        0.2106
     14 H          15.1243   68.2674   -3.2949 H       1  UNL1        0.2105
     15 N          17.5863   70.5217   -6.9033 N.ar    1  UNL1       -0.2551
     16 C          16.8444   70.4852   -8.0242 C.ar    1  UNL1        0.3323
     17 N          17.4239   70.5234   -9.2386 N.ar    1  UNL1       -0.2743
     18 C          18.7646   70.5893   -9.3504 C.ar    1  UNL1        0.2626
     19 C          19.5591   70.6226   -8.1783 C.ar    1  UNL1        0.0795
     20 C          18.9520   70.5874   -6.9730 C.ar    1  UNL1        0.0869
     21 O          15.6339   70.4262   -7.9392 O.2     1  UNL1       -0.2464
     22 O          19.2903   70.6191  -10.4492 O.2     1  UNL1       -0.2670
     23 H          16.8728   70.5004  -10.0370 H       1  UNL1        0.1734
     24 O          21.6924   72.6870   -1.8417 O.3     1  UNL1       -0.2703
     25 P          21.3941   74.2510   -2.0758 P.3     1  UNL1        0.2208
     26 O          19.9671   74.5276   -1.7992 O.2     1  UNL1       -0.5170
     27 O          22.3120   75.1265   -1.0833 O.3     1  UNL1       -0.4371
     28 O          21.7315   74.6406   -3.6004 O.3     1  UNL1       -0.2858
     29 C          21.5222   73.4657   -4.3849 C.3     1  UNL1        0.2704
     30 C          22.6429   73.3367   -5.4177 C.3     1  UNL1        0.1967
     31 C          22.6496   74.5854   -6.3049 C.3     1  UNL1        0.1715
     32 C          21.2452   74.7802   -6.8873 C.3     1  UNL1        0.1694
     33 C          20.2299   74.8017   -5.7420 C.3     1  UNL1        0.1761
     34 O          23.8993   73.2168   -4.7481 O.3     1  UNL1       -0.3775
     35 O          23.5925   74.4159   -7.3653 O.3     1  UNL1       -0.3794
     36 O          20.9443   73.7056   -7.7788 O.3     1  UNL1       -0.3794
     37 O          20.2625   73.5563   -5.0464 O.3     1  UNL1       -0.3258
     38 H          23.8473   72.4238   -4.1973 H       1  UNL1        0.2106
     39 H          24.4561   74.2852   -6.9537 H       1  UNL1        0.2105
     40 H          21.6104   73.7274   -8.4782 H       1  UNL1        0.2105
     41 C          18.8274   75.0302   -6.3102 C.3     1  UNL1        0.1693
     42 O          18.0066   73.8973   -6.0203 O.3     1  UNL1       -0.3794
     43 H          17.1337   74.0813   -6.3936 H       1  UNL1        0.2105
@<TRIPOS>BOND
     1    15    16   ar
     2    15    20   ar
     3    15     6    1
     4    16    17   ar
     5    16    21    2
     6    17    18   ar
     7    17    23    1
     8    18    19   ar
     9    18    22    2
    10    19    20   ar
    11     6     7    1
    12     6    11    1
    13     7     8    1
    14     7     9    1
    15     8    13    1
    16     9    10    1
    17     9    12    1
    18    10    11    1
    19    10     5    1
    20    12    14    1
    21     5     4    1
    22     4     1    1
    23     1     2    2
    24     1     3    1
    25     1    24    1
    26    24    25    1
    27    25    26    2
    28    25    27    1
    29    25    28    1
    30    28    29    1
    31    29    30    1
    32    29    37    1
    33    30    31    1
    34    30    34    1
    35    31    32    1
    36    31    35    1
    37    32    33    1
    38    32    36    1
    39    33    41    1
    40    33    37    1
    41    41    42    1
    42    34    38    1
    43    35    39    1
    44    36    40    1
    45    42    43    1
