@<TRIPOS>MOLECULE
UD1
 46 48 0 0 0
SMALL
GASTEIGER

@<TRIPOS>ATOM
      1 P          21.5901   70.8408   -2.5305 P.3     1  UNL1        0.2189
      2 O          23.0615   70.9747   -2.6069 O.2     1  UNL1       -0.5170
      3 O          21.1682   69.3331   -2.9064 O.3     1  UNL1       -0.4371
      4 O          20.9042   71.8635   -3.5681 O.3     1  UNL1       -0.3112
      5 C          19.8678   72.5417   -2.8567 C.3     1  UNL1        0.1811
      6 C          17.7609   71.3762   -5.5269 C.3     1  UNL1        0.2383
      7 C          17.8995   70.1568   -4.5813 C.3     1  UNL1        0.1895
      8 O          16.7275   69.3420   -4.6228 O.3     1  UNL1       -0.3779
      9 C          18.0529   70.8353   -3.1952 C.3     1  UNL1        0.1713
     10 C          18.5217   72.2650   -3.5281 C.3     1  UNL1        0.1764
     11 O          18.6613   72.3496   -4.9566 O.3     1  UNL1       -0.3308
     12 O          16.7995   70.8600   -2.5088 O.3     1  UNL1       -0.3794
     13 H          16.8777   68.6040   -4.0159 H       1  UNL1        0.2106
     14 H          16.5317   69.9399   -2.3832 H       1  UNL1        0.2105
     15 N          18.1718   71.0277   -6.8875 N.ar    1  UNL1       -0.2551
     16 C          17.2484   70.6364   -7.7828 C.ar    1  UNL1        0.3323
     17 N          17.5972   70.3137   -9.0423 N.ar    1  UNL1       -0.2743
     18 C          18.8888   70.3697   -9.4252 C.ar    1  UNL1        0.2626
     19 C          19.8720   70.7743   -8.4911 C.ar    1  UNL1        0.0795
     20 C          19.4938   71.0975   -7.2357 C.ar    1  UNL1        0.0869
     21 O          16.0794   70.5810   -7.4526 O.2     1  UNL1       -0.2464
     22 O          19.2060   70.0736  -10.5623 O.2     1  UNL1       -0.2670
     23 H          16.9174   70.0381   -9.6763 H       1  UNL1        0.1734
     24 O          21.0971   71.1806   -1.0371 O.3     1  UNL1       -0.2703
     25 P          22.2585   70.6845   -0.0399 P.3     1  UNL1        0.2208
     26 O          23.4329   70.2503   -0.8280 O.2     1  UNL1       -0.5170
     27 O          21.7187   69.4502    0.8417 O.3     1  UNL1       -0.4371
     28 O          22.6833   71.8929    0.9346 O.3     1  UNL1       -0.2865
     29 C          21.4927   72.6255    1.2296 C.3     1  UNL1        0.2611
     30 C          21.6893   74.0897    0.8326 C.3     1  UNL1        0.1582
     31 C          22.8827   74.6627    1.6052 C.3     1  UNL1        0.1625
     32 C          22.6615   74.4169    3.1015 C.3     1  UNL1        0.1686
     33 C          22.3946   72.9273    3.3277 C.3     1  UNL1        0.1760
     34 O          22.9847   76.0660    1.3570 O.3     1  UNL1       -0.3801
     35 O          23.8272   74.8107    3.8280 O.3     1  UNL1       -0.3794
     36 O          21.2153   72.5367    2.6255 O.3     1  UNL1       -0.3263
     37 H          23.7464   76.3842    1.8608 H       1  UNL1        0.2105
     38 H          23.6455   74.6388    4.7628 H       1  UNL1        0.2105
     39 C          23.2148   74.2526   -1.0597 C.2     1  UNL1        0.2231
     40 C          23.4815   74.3426   -2.5406 C.3     1  UNL1        0.0946
     41 N          21.9489   74.1766   -0.6060 N.am    1  UNL1       -0.2994
     42 O          24.1402   74.2494   -0.2761 O.2     1  UNL1       -0.2751
     43 H          21.2082   74.1794   -1.2328 H       1  UNL1        0.1496
     44 C          22.2044   72.6659    4.8233 C.3     1  UNL1        0.1693
     45 O          20.8955   73.0825    5.2174 O.3     1  UNL1       -0.3794
     46 H          20.8173   72.9012    6.1638 H       1  UNL1        0.2105
@<TRIPOS>BOND
     1    29    30    1
     2    29    28    1
     3    29    36    1
     4    30    31    1
     5    30    41    1
     6    31    32    1
     7    31    34    1
     8    32    33    1
     9    32    35    1
    10    33    44    1
    11    33    36    1
    12    44    45    1
    13    39    40    1
    14    39    41   am
    15    39    42    2
    16    41    43    1
    17    28    25    1
    18    34    37    1
    19    35    38    1
    20    45    46    1
    21    15    16   ar
    22    15    20   ar
    23    15     6    1
    24    16    17   ar
    25    16    21    2
    26    17    18   ar
    27    17    23    1
    28    18    19   ar
    29    18    22    2
    30    19    20   ar
    31     6     7    1
    32     6    11    1
    33     7     8    1
    34     7     9    1
    35     8    13    1
    36     9    10    1
    37     9    12    1
    38    10    11    1
    39    10     5    1
    40    12    14    1
    41     5     4    1
    42     4     1    1
    43     1     2    2
    44     1     3    1
    45     1    24    1
    46    24    25    1
    47    25    26    2
    48    25    27    1
@<TRIPOS>MOLECULE
UD1
 46 48 0 0 0
SMALL
GASTEIGER

@<TRIPOS>ATOM
      1 P          21.9127   70.4752   -0.2619 P.3     1  UNL1        0.2189
      2 O          22.8476   69.4237    0.1953 O.2     1  UNL1       -0.5170
      3 O          21.2169   71.1669    1.0148 O.3     1  UNL1       -0.4371
      4 O          20.7801   69.8157   -1.1974 O.3     1  UNL1       -0.3112
      5 C          20.9464   70.3711   -2.5028 C.3     1  UNL1        0.1811
      6 C          18.4516   70.9559   -5.0249 C.3     1  UNL1        0.2383
      7 C          18.0527   69.5994   -4.3916 C.3     1  UNL1        0.1895
      8 O          16.6378   69.4113   -4.4351 O.3     1  UNL1       -0.3779
      9 C          18.5442   69.7655   -2.9300 C.3     1  UNL1        0.1713
     10 C          19.5998   70.8848   -3.0149 C.3     1  UNL1        0.1764
     11 O          19.7146   71.2632   -4.3972 O.3     1  UNL1       -0.3308
     12 O          17.4627   70.1523   -2.0794 O.3     1  UNL1       -0.3794
     13 H          16.4567   68.5529   -4.0280 H       1  UNL1        0.2106
     14 H          16.8105   69.4400   -2.1154 H       1  UNL1        0.2105
     15 N          18.6134   70.8252   -6.4734 N.ar    1  UNL1       -0.2551
     16 C          17.5278   70.8093   -7.2664 C.ar    1  UNL1        0.3323
     17 N          17.6470   70.6942   -8.6023 N.ar    1  UNL1       -0.2743
     18 C          18.8655   70.5830   -9.1688 C.ar    1  UNL1        0.2626
     19 C          20.0164   70.5923   -8.3453 C.ar    1  UNL1        0.0795
     20 C          19.8684   70.7144   -7.0087 C.ar    1  UNL1        0.0869
     21 O          16.4221   70.9087   -6.7704 O.2     1  UNL1       -0.2464
     22 O          18.9741   70.4740  -10.3761 O.2     1  UNL1       -0.2670
     23 H          16.8534   70.6892   -9.1595 H       1  UNL1        0.1734
     24 O          22.7216   71.5850   -1.1004 O.3     1  UNL1       -0.2703
     25 P          22.2236   73.0211   -0.5720 P.3     1  UNL1        0.2208
     26 O          20.7618   72.9842   -0.3475 O.2     1  UNL1       -0.5170
     27 O          22.5689   74.1469   -1.6700 O.3     1  UNL1       -0.4371
     28 O          22.9700   73.3743    0.8095 O.3     1  UNL1       -0.2865
     29 C          22.6235   74.7215    1.1351 C.3     1  UNL1        0.2611
     30 C          23.8924   75.4967    1.4941 C.3     1  UNL1        0.1582
     31 C          24.5787   74.8124    2.6817 C.3     1  UNL1        0.1625
     32 C          23.5610   74.6656    3.8178 C.3     1  UNL1        0.1686
     33 C          22.3181   73.9502    3.2841 C.3     1  UNL1        0.1760
     34 O          25.6808   75.6083    3.1215 O.3     1  UNL1       -0.3801
     35 O          24.1360   73.9003    4.8786 O.3     1  UNL1       -0.3794
     36 O          21.7255   74.7254    2.2428 O.3     1  UNL1       -0.3263
     37 H          26.0824   75.1416    3.8673 H       1  UNL1        0.2105
     38 H          23.4631   73.8316    5.5707 H       1  UNL1        0.2105
     39 C          25.5360   76.6070    0.0798 C.2     1  UNL1        0.2231
     40 C          26.4693   76.6211   -1.1038 C.3     1  UNL1        0.0946
     41 N          24.7996   75.5107    0.3447 N.am    1  UNL1       -0.2994
     42 O          25.4472   77.5832    0.7936 O.2     1  UNL1       -0.2751
     43 H          24.8703   74.7295   -0.2265 H       1  UNL1        0.1496
     44 C          21.3083   73.7695    4.4194 C.3     1  UNL1        0.1693
     45 O          21.6191   72.5809    5.1492 O.3     1  UNL1       -0.3794
     46 H          20.9607   72.5045    5.8530 H       1  UNL1        0.2105
@<TRIPOS>BOND
     1    29    30    1
     2    29    28    1
     3    29    36    1
     4    30    31    1
     5    30    41    1
     6    31    32    1
     7    31    34    1
     8    32    33    1
     9    32    35    1
    10    33    44    1
    11    33    36    1
    12    44    45    1
    13    39    40    1
    14    39    41   am
    15    39    42    2
    16    41    43    1
    17    28    25    1
    18    34    37    1
    19    35    38    1
    20    45    46    1
    21    15    16   ar
    22    15    20   ar
    23    15     6    1
    24    16    17   ar
    25    16    21    2
    26    17    18   ar
    27    17    23    1
    28    18    19   ar
    29    18    22    2
    30    19    20   ar
    31     6     7    1
    32     6    11    1
    33     7     8    1
    34     7     9    1
    35     8    13    1
    36     9    10    1
    37     9    12    1
    38    10    11    1
    39    10     5    1
    40    12    14    1
    41     5     4    1
    42     4     1    1
    43     1     2    2
    44     1     3    1
    45     1    24    1
    46    24    25    1
    47    25    26    2
    48    25    27    1
@<TRIPOS>MOLECULE
UD1
 46 48 0 0 0
SMALL
GASTEIGER

@<TRIPOS>ATOM
      1 P          22.5350   73.2235   -3.2756 P.3     1  UNL1        0.2189
      2 O          22.2818   74.6229   -3.6836 O.2     1  UNL1       -0.5170
      3 O          23.9686   72.7519   -3.8367 O.3     1  UNL1       -0.4371
      4 O          21.3843   72.2726   -3.8794 O.3     1  UNL1       -0.3112
      5 C          20.4339   72.0586   -2.8347 C.3     1  UNL1        0.1811
      6 C          18.0642   71.2752   -5.4228 C.3     1  UNL1        0.2383
      7 C          18.1244   69.9957   -4.5513 C.3     1  UNL1        0.1895
      8 O          16.8709   69.3116   -4.5604 O.3     1  UNL1       -0.3779
      9 C          18.4292   70.5737   -3.1448 C.3     1  UNL1        0.1713
     10 C          19.0296   71.9632   -3.4332 C.3     1  UNL1        0.1764
     11 O          19.0955   72.1147   -4.8615 O.3     1  UNL1       -0.3308
     12 O          17.2272   70.6898   -2.3803 O.3     1  UNL1       -0.3794
     13 H          16.9752   68.5283   -4.0026 H       1  UNL1        0.2106
     14 H          16.8694   69.7970   -2.2853 H       1  UNL1        0.2105
     15 N          18.3565   70.9644   -6.8225 N.ar    1  UNL1       -0.2551
     16 C          17.3475   70.7059   -7.6724 C.ar    1  UNL1        0.3323
     17 N          17.5868   70.4209   -8.9662 N.ar    1  UNL1       -0.2743
     18 C          18.8520   70.3812   -9.4305 C.ar    1  UNL1        0.2626
     19 C          19.9240   70.6456   -8.5453 C.ar    1  UNL1        0.0795
     20 C          19.6554   70.9339   -7.2537 C.ar    1  UNL1        0.0869
     21 O          16.2010   70.7379   -7.2687 O.2     1  UNL1       -0.2464
     22 O          19.0697   70.1190  -10.5990 O.2     1  UNL1       -0.2670
     23 H          16.8465   70.2417   -9.5663 H       1  UNL1        0.1734
     24 O          22.5264   73.1227   -1.6698 O.3     1  UNL1       -0.2703
     25 P          22.5726   74.6303   -1.1091 P.3     1  UNL1        0.2208
     26 O          21.6541   75.4788   -1.8998 O.2     1  UNL1       -0.5170
     27 O          24.0719   75.2039   -1.2325 O.3     1  UNL1       -0.4371
     28 O          22.1198   74.6438    0.4354 O.3     1  UNL1       -0.2865
     29 C          23.1047   73.9072    1.1625 C.3     1  UNL1        0.2611
     30 C          22.4478   72.6847    1.8059 C.3     1  UNL1        0.1582
     31 C          21.3241   73.1518    2.7379 C.3     1  UNL1        0.1625
     32 C          21.8977   74.1773    3.7216 C.3     1  UNL1        0.1686
     33 C          22.5935   75.2889    2.9333 C.3     1  UNL1        0.1760
     34 O          20.8025   72.0330    3.4574 O.3     1  UNL1       -0.3801
     35 O          20.8390   74.7342    4.5029 O.3     1  UNL1       -0.3794
     36 O          23.6692   74.7400    2.1729 O.3     1  UNL1       -0.3263
     37 H          20.1001   72.3716    4.0295 H       1  UNL1        0.2105
     38 H          21.2432   75.3735    5.1065 H       1  UNL1        0.2105
     39 C          22.2648   70.5287    0.6868 C.2     1  UNL1        0.2231
     40 C          21.6929   69.6400   -0.3881 C.3     1  UNL1        0.0946
     41 N          21.8921   71.8208    0.7622 N.am    1  UNL1       -0.2994
     42 O          23.0612   70.0806    1.4838 O.2     1  UNL1       -0.2751
     43 H          21.2550   72.1797    0.1244 H       1  UNL1        0.1496
     44 C          23.1419   76.3354    3.9056 C.3     1  UNL1        0.1693
     45 O          24.4345   75.9313    4.3617 O.3     1  UNL1       -0.3794
     46 H          24.7431   76.6160    4.9705 H       1  UNL1        0.2105
@<TRIPOS>BOND
     1    29    30    1
     2    29    28    1
     3    29    36    1
     4    30    31    1
     5    30    41    1
     6    31    32    1
     7    31    34    1
     8    32    33    1
     9    32    35    1
    10    33    44    1
    11    33    36    1
    12    44    45    1
    13    39    40    1
    14    39    41   am
    15    39    42    2
    16    41    43    1
    17    28    25    1
    18    34    37    1
    19    35    38    1
    20    45    46    1
    21    15    16   ar
    22    15    20   ar
    23    15     6    1
    24    16    17   ar
    25    16    21    2
    26    17    18   ar
    27    17    23    1
    28    18    19   ar
    29    18    22    2
    30    19    20   ar
    31     6     7    1
    32     6    11    1
    33     7     8    1
    34     7     9    1
    35     8    13    1
    36     9    10    1
    37     9    12    1
    38    10    11    1
    39    10     5    1
    40    12    14    1
    41     5     4    1
    42     4     1    1
    43     1     2    2
    44     1     3    1
    45     1    24    1
    46    24    25    1
    47    25    26    2
    48    25    27    1
@<TRIPOS>MOLECULE
UD1
 46 48 0 0 0
SMALL
GASTEIGER

@<TRIPOS>ATOM
      1 P          20.4980   70.0627   -2.9291 P.3     1  UNL1        0.2189
      2 O          21.9212   70.1992   -3.3095 O.2     1  UNL1       -0.5170
      3 O          19.8256   68.8752   -3.7836 O.3     1  UNL1       -0.4371
      4 O          19.7273   71.4436   -3.2322 O.3     1  UNL1       -0.3112
      5 C          18.3509   71.1151   -3.4275 C.3     1  UNL1        0.1811
      6 C          18.7303   72.6474   -6.6578 C.3     1  UNL1        0.2383
      7 C          18.4554   71.1543   -6.9663 C.3     1  UNL1        0.1895
      8 O          17.7681   71.0073   -8.2094 O.3     1  UNL1       -0.3779
      9 C          17.5477   70.7384   -5.7796 C.3     1  UNL1        0.1713
     10 C          17.8383   71.7961   -4.6974 C.3     1  UNL1        0.1764
     11 O          18.8457   72.6793   -5.2193 O.3     1  UNL1       -0.3308
     12 O          16.1720   70.7732   -6.1658 O.3     1  UNL1       -0.3794
     13 H          17.6286   70.0595   -8.3421 H       1  UNL1        0.2106
     14 H          16.0673   70.1348   -6.8838 H       1  UNL1        0.2105
     15 N          19.9772   73.0864   -7.2855 N.ar    1  UNL1       -0.2551
     16 C          19.9345   73.8094   -8.4181 C.ar    1  UNL1        0.3323
     17 N          21.0655   74.2299   -9.0150 N.ar    1  UNL1       -0.2743
     18 C          22.2674   73.9223   -8.4870 C.ar    1  UNL1        0.2626
     19 C          22.3270   73.1568   -7.2982 C.ar    1  UNL1        0.0795
     20 C          21.1770   72.7525   -6.7173 C.ar    1  UNL1        0.0869
     21 O          18.8581   74.0948   -8.9065 O.2     1  UNL1       -0.2464
     22 O          23.2906   74.2980   -9.0285 O.2     1  UNL1       -0.2670
     23 H          21.0159   74.7545   -9.8290 H       1  UNL1        0.1734
     24 O          20.3921   69.7225   -1.3600 O.3     1  UNL1       -0.2703
     25 P          21.5646   70.5446   -0.6260 P.3     1  UNL1        0.2208
     26 O          22.8665   70.1999   -1.2384 O.2     1  UNL1       -0.5170
     27 O          21.5904   70.1632    0.9380 O.3     1  UNL1       -0.4371
     28 O          21.2970   72.1234   -0.7874 O.3     1  UNL1       -0.2865
     29 C          22.5112   72.7880   -0.4334 C.3     1  UNL1        0.2611
     30 C          22.1812   74.0564    0.3554 C.3     1  UNL1        0.1582
     31 C          21.2975   74.9662   -0.5053 C.3     1  UNL1        0.1625
     32 C          21.9951   75.1976   -1.8499 C.3     1  UNL1        0.1686
     33 C          22.3364   73.8428   -2.4738 C.3     1  UNL1        0.1760
     34 O          21.1060   76.2162    0.1599 O.3     1  UNL1       -0.3801
     35 O          21.1245   75.9212   -2.7217 O.3     1  UNL1       -0.3794
     36 O          23.2278   73.1288   -1.6182 O.3     1  UNL1       -0.3263
     37 H          20.5459   76.7557   -0.4150 H       1  UNL1        0.2105
     38 H          21.6016   76.0440   -3.5546 H       1  UNL1        0.2105
     39 C          22.1566   73.4121    2.7046 C.2     1  UNL1        0.2231
     40 C          21.4217   73.0429    3.9679 C.3     1  UNL1        0.0946
     41 N          21.4677   73.6982    1.5830 N.am    1  UNL1       -0.2994
     42 O          23.3684   73.4510    2.6975 O.2     1  UNL1       -0.2751
     43 H          20.4979   73.6669    1.5883 H       1  UNL1        0.1496
     44 C          23.0045   74.0623   -3.8327 C.3     1  UNL1        0.1693
     45 O          24.2737   73.4058   -3.8516 O.3     1  UNL1       -0.3794
     46 H          24.6601   73.5688   -4.7226 H       1  UNL1        0.2105
@<TRIPOS>BOND
     1    29    30    1
     2    29    28    1
     3    29    36    1
     4    30    31    1
     5    30    41    1
     6    31    32    1
     7    31    34    1
     8    32    33    1
     9    32    35    1
    10    33    44    1
    11    33    36    1
    12    44    45    1
    13    39    40    1
    14    39    41   am
    15    39    42    2
    16    41    43    1
    17    28    25    1
    18    34    37    1
    19    35    38    1
    20    45    46    1
    21    15    16   ar
    22    15    20   ar
    23    15     6    1
    24    16    17   ar
    25    16    21    2
    26    17    18   ar
    27    17    23    1
    28    18    19   ar
    29    18    22    2
    30    19    20   ar
    31     6     7    1
    32     6    11    1
    33     7     8    1
    34     7     9    1
    35     8    13    1
    36     9    10    1
    37     9    12    1
    38    10    11    1
    39    10     5    1
    40    12    14    1
    41     5     4    1
    42     4     1    1
    43     1     2    2
    44     1     3    1
    45     1    24    1
    46    24    25    1
    47    25    26    2
    48    25    27    1
@<TRIPOS>MOLECULE
UD1
 46 48 0 0 0
SMALL
GASTEIGER

@<TRIPOS>ATOM
      1 P          22.9015   72.0056   -3.2554 P.3     1  UNL1        0.2189
      2 O          23.4674   70.6478   -3.0971 O.2     1  UNL1       -0.5170
      3 O          23.9144   72.9119   -4.1186 O.3     1  UNL1       -0.4371
      4 O          22.6910   72.6711   -1.8043 O.3     1  UNL1       -0.3112
      5 C          22.3307   71.6149   -0.9128 C.3     1  UNL1        0.1811
      6 C          20.4931   72.9076    1.8942 C.3     1  UNL1        0.2383
      7 C          20.6846   74.1286    0.9600 C.3     1  UNL1        0.1895
      8 O          19.5938   75.0421    1.0827 O.3     1  UNL1       -0.3779
      9 C          20.6969   73.4668   -0.4425 C.3     1  UNL1        0.1713
     10 C          21.0555   71.9952   -0.1589 C.3     1  UNL1        0.1764
     11 O          21.2692   71.8704    1.2574 O.3     1  UNL1       -0.3308
     12 O          19.4088   73.5657   -1.0539 O.3     1  UNL1       -0.3794
     13 H          19.7737   75.7759    0.4788 H       1  UNL1        0.2106
     14 H          19.2169   74.5081   -1.1498 H       1  UNL1        0.2105
     15 N          21.0111   73.1917    3.2330 N.ar    1  UNL1       -0.2551
     16 C          20.1833   73.6631    4.1816 C.ar    1  UNL1        0.3323
     17 N          20.6315   73.9294    5.4227 N.ar    1  UNL1       -0.2743
     18 C          21.9291   73.7347    5.7329 C.ar    1  UNL1        0.2626
     19 C          22.8129   73.2445    4.7421 C.ar    1  UNL1        0.0795
     20 C          22.3356   72.9806    3.5068 C.ar    1  UNL1        0.0869
     21 O          19.0103   73.8438    3.9172 O.2     1  UNL1       -0.2464
     22 O          22.3365   73.9797    6.8534 O.2     1  UNL1       -0.2670
     23 H          20.0193   74.2644    6.0959 H       1  UNL1        0.1734
     24 O          21.4852   71.9117   -4.0131 O.3     1  UNL1       -0.2703
     25 P          21.5137   73.0093   -5.1894 P.3     1  UNL1        0.2208
     26 O          22.7758   72.8832   -5.9511 O.2     1  UNL1       -0.5170
     27 O          21.4182   74.4841   -4.5508 O.3     1  UNL1       -0.4371
     28 O          20.2651   72.7719   -6.1770 O.3     1  UNL1       -0.2865
     29 C          20.4926   71.5275   -6.8410 C.3     1  UNL1        0.2611
     30 C          20.4089   71.7396   -8.3536 C.3     1  UNL1        0.1582
     31 C          19.0247   72.2958   -8.7060 C.3     1  UNL1        0.1625
     32 C          17.9584   71.3655   -8.1180 C.3     1  UNL1        0.1686
     33 C          18.2253   71.1841   -6.6223 C.3     1  UNL1        0.1760
     34 O          18.8807   72.3574  -10.1262 O.3     1  UNL1       -0.3801
     35 O          16.6646   71.9413   -8.3077 O.3     1  UNL1       -0.3794
     36 O          19.5056   70.5838   -6.4303 O.3     1  UNL1       -0.3263
     37 H          17.9984   72.7122  -10.3024 H       1  UNL1        0.2105
     38 H          16.0250   71.3251   -7.9233 H       1  UNL1        0.2105
     39 C          21.1475   74.0004   -8.8805 C.2     1  UNL1        0.2231
     40 C          22.2100   74.9784   -9.3126 C.3     1  UNL1        0.0946
     41 N          21.4409   72.6902   -8.7729 N.am    1  UNL1       -0.2994
     42 O          20.0279   74.3928   -8.6301 O.2     1  UNL1       -0.2751
     43 H          22.3367   72.3758   -8.9734 H       1  UNL1        0.1496
     44 C          17.1466   70.2823   -6.0188 C.3     1  UNL1        0.1693
     45 O          16.0147   70.2439   -6.8903 O.3     1  UNL1       -0.3794
     46 H          15.3603   69.6669   -6.4739 H       1  UNL1        0.2105
@<TRIPOS>BOND
     1    29    30    1
     2    29    28    1
     3    29    36    1
     4    30    31    1
     5    30    41    1
     6    31    32    1
     7    31    34    1
     8    32    33    1
     9    32    35    1
    10    33    44    1
    11    33    36    1
    12    44    45    1
    13    39    40    1
    14    39    41   am
    15    39    42    2
    16    41    43    1
    17    28    25    1
    18    34    37    1
    19    35    38    1
    20    45    46    1
    21    15    16   ar
    22    15    20   ar
    23    15     6    1
    24    16    17   ar
    25    16    21    2
    26    17    18   ar
    27    17    23    1
    28    18    19   ar
    29    18    22    2
    30    19    20   ar
    31     6     7    1
    32     6    11    1
    33     7     8    1
    34     7     9    1
    35     8    13    1
    36     9    10    1
    37     9    12    1
    38    10    11    1
    39    10     5    1
    40    12    14    1
    41     5     4    1
    42     4     1    1
    43     1     2    2
    44     1     3    1
    45     1    24    1
    46    24    25    1
    47    25    26    2
    48    25    27    1
@<TRIPOS>MOLECULE
UD1
 46 48 0 0 0
SMALL
GASTEIGER

@<TRIPOS>ATOM
      1 P          22.4808   73.9917   -4.8189 P.3     1  UNL1        0.2189
      2 O          23.6109   73.0419   -4.7207 O.2     1  UNL1       -0.5170
      3 O          22.8857   75.2089   -5.7921 O.3     1  UNL1       -0.4371
      4 O          22.1361   74.5679   -3.3554 O.3     1  UNL1       -0.3112
      5 C          21.2604   73.6251   -2.7351 C.3     1  UNL1        0.1811
      6 C          22.1919   72.0856    0.3777 C.3     1  UNL1        0.2383
      7 C          21.1265   71.1343   -0.2224 C.3     1  UNL1        0.1895
      8 O          21.3684   69.7830    0.1709 O.3     1  UNL1       -0.3779
      9 C          21.3495   71.3155   -1.7464 C.3     1  UNL1        0.1713
     10 C          22.0743   72.6706   -1.8601 C.3     1  UNL1        0.1764
     11 O          22.1937   73.2068   -0.5314 O.3     1  UNL1       -0.3308
     12 O          22.1642   70.2603   -2.2618 O.3     1  UNL1       -0.3794
     13 H          20.6737   69.2449   -0.2333 H       1  UNL1        0.2106
     14 H          21.6838   69.4359   -2.1077 H       1  UNL1        0.2105
     15 N          21.8076   72.5130    1.7235 N.ar    1  UNL1       -0.2551
     16 C          22.2888   71.8570    2.7937 C.ar    1  UNL1        0.3323
     17 N          21.9554   72.2305    4.0433 N.ar    1  UNL1       -0.2743
     18 C          21.1202   73.2703    4.2416 C.ar    1  UNL1        0.2626
     19 C          20.6016   73.9660    3.1237 C.ar    1  UNL1        0.0795
     20 C          20.9567   73.5735    1.8814 C.ar    1  UNL1        0.0869
     21 O          23.0431   70.9172    2.6311 O.2     1  UNL1       -0.2464
     22 O          20.8143   73.6059    5.3709 O.2     1  UNL1       -0.2670
     23 H          22.3156   71.7489    4.8039 H       1  UNL1        0.1734
     24 O          21.1926   73.2333   -5.4140 O.3     1  UNL1       -0.2703
     25 P          21.4039   73.1374   -7.0063 P.3     1  UNL1        0.2208
     26 O          21.4803   71.7158   -7.4089 O.2     1  UNL1       -0.5170
     27 O          22.7713   73.8838   -7.4128 O.3     1  UNL1       -0.4371
     28 O          20.1663   73.8417   -7.7565 O.3     1  UNL1       -0.2865
     29 C          19.0315   73.7085   -6.8988 C.3     1  UNL1        0.2611
     30 C          17.8805   73.0714   -7.6794 C.3     1  UNL1        0.1582
     31 C          17.5452   73.9536   -8.8873 C.3     1  UNL1        0.1625
     32 C          17.2874   75.3816   -8.3948 C.3     1  UNL1        0.1686
     33 C          18.4848   75.8455   -7.5626 C.3     1  UNL1        0.1760
     34 O          16.3775   73.4501   -9.5386 O.3     1  UNL1       -0.3801
     35 O          17.1176   76.2506   -9.5162 O.3     1  UNL1       -0.3794
     36 O          18.6406   74.9960   -6.4267 O.3     1  UNL1       -0.3263
     37 H          16.2035   74.0331  -10.2904 H       1  UNL1        0.2105
     38 H          16.9589   77.1370   -9.1618 H       1  UNL1        0.2105
     39 C          18.7597   71.5732   -9.3871 C.2     1  UNL1        0.2231
     40 C          19.1691   70.2020   -9.8610 C.3     1  UNL1        0.0946
     41 N          18.2788   71.7397   -8.1400 N.am    1  UNL1       -0.2994
     42 O          18.8626   72.5267  -10.1289 O.2     1  UNL1       -0.2751
     43 H          18.1962   70.9767   -7.5463 H       1  UNL1        0.1496
     44 C          18.2516   77.2829   -7.0929 C.3     1  UNL1        0.1693
     45 O          18.2132   77.3175   -5.6648 O.3     1  UNL1       -0.3794
     46 H          18.0645   78.2384   -5.4111 H       1  UNL1        0.2105
@<TRIPOS>BOND
     1    29    30    1
     2    29    28    1
     3    29    36    1
     4    30    31    1
     5    30    41    1
     6    31    32    1
     7    31    34    1
     8    32    33    1
     9    32    35    1
    10    33    44    1
    11    33    36    1
    12    44    45    1
    13    39    40    1
    14    39    41   am
    15    39    42    2
    16    41    43    1
    17    28    25    1
    18    34    37    1
    19    35    38    1
    20    45    46    1
    21    15    16   ar
    22    15    20   ar
    23    15     6    1
    24    16    17   ar
    25    16    21    2
    26    17    18   ar
    27    17    23    1
    28    18    19   ar
    29    18    22    2
    30    19    20   ar
    31     6     7    1
    32     6    11    1
    33     7     8    1
    34     7     9    1
    35     8    13    1
    36     9    10    1
    37     9    12    1
    38    10    11    1
    39    10     5    1
    40    12    14    1
    41     5     4    1
    42     4     1    1
    43     1     2    2
    44     1     3    1
    45     1    24    1
    46    24    25    1
    47    25    26    2
    48    25    27    1
@<TRIPOS>MOLECULE
UD1
 46 48 0 0 0
SMALL
GASTEIGER

@<TRIPOS>ATOM
      1 P          20.4486   70.0687   -2.1784 P.3     1  UNL1        0.2189
      2 O          21.6547   69.5888   -2.8880 O.2     1  UNL1       -0.5170
      3 O          19.2317   69.0463   -2.4363 O.3     1  UNL1       -0.4371
      4 O          20.0479   71.5280   -2.7286 O.3     1  UNL1       -0.3112
      5 C          18.6231   71.6141   -2.6739 C.3     1  UNL1        0.1811
      6 C          18.9549   72.7451   -6.0707 C.3     1  UNL1        0.2383
      7 C          18.7582   71.2129   -6.1891 C.3     1  UNL1        0.1895
      8 O          18.0908   70.8758   -7.4057 O.3     1  UNL1       -0.3779
      9 C          17.8616   70.9039   -4.9620 C.3     1  UNL1        0.1713
     10 C          18.0887   72.1028   -4.0210 C.3     1  UNL1        0.1764
     11 O          19.0552   72.9635   -4.6474 O.3     1  UNL1       -0.3308
     12 O          16.4896   70.8195   -5.3534 O.3     1  UNL1       -0.3794
     13 H          18.0003   69.9129   -7.4181 H       1  UNL1        0.2106
     14 H          16.4238   70.0913   -5.9854 H       1  UNL1        0.2105
     15 N          20.1839   73.1647   -6.7451 N.ar    1  UNL1       -0.2551
     16 C          21.3768   72.7983   -6.2451 C.ar    1  UNL1        0.3323
     17 N          22.5233   73.1665   -6.8468 N.ar    1  UNL1       -0.2743
     18 C          22.4926   73.9218   -7.9632 C.ar    1  UNL1        0.2626
     19 C          21.2437   74.3197   -8.4971 C.ar    1  UNL1        0.0795
     20 C          20.1090   73.9318   -7.8764 C.ar    1  UNL1        0.0869
     21 O          21.4209   72.1170   -5.2388 O.2     1  UNL1       -0.2464
     22 O          23.5287   74.2594   -8.5054 O.2     1  UNL1       -0.2670
     23 H          23.3748   72.8892   -6.4749 H       1  UNL1        0.1734
     24 O          20.7529   70.1552   -0.6008 O.3     1  UNL1       -0.2703
     25 P          22.3078   70.5402   -0.4477 P.3     1  UNL1        0.2208
     26 O          22.8706   70.8576   -1.7786 O.2     1  UNL1       -0.5170
     27 O          23.1087   69.2978    0.1904 O.3     1  UNL1       -0.4371
     28 O          22.4524   71.8216    0.5154 O.3     1  UNL1       -0.2865
     29 C          21.1493   72.1032    1.0290 C.3     1  UNL1        0.2611
     30 C          20.8021   73.5668    0.7507 C.3     1  UNL1        0.1582
     31 C          21.8513   74.4658    1.4145 C.3     1  UNL1        0.1625
     32 C          21.9516   74.0900    2.8966 C.3     1  UNL1        0.1686
     33 C          22.2152   72.5872    3.0130 C.3     1  UNL1        0.1760
     34 O          21.4579   75.8336    1.2894 O.3     1  UNL1       -0.3801
     35 O          23.0254   74.8132    3.5014 O.3     1  UNL1       -0.3794
     36 O          21.1313   71.8614    2.4342 O.3     1  UNL1       -0.3263
     37 H          22.1445   76.3622    1.7191 H       1  UNL1        0.2105
     38 H          23.0534   74.5466    4.4313 H       1  UNL1        0.2105
     39 C          21.9003   74.2791   -1.3038 C.2     1  UNL1        0.2231
     40 C          21.8948   74.5224   -2.7914 C.3     1  UNL1        0.0946
     41 N          20.7975   73.8029   -0.6945 N.am    1  UNL1       -0.2994
     42 O          22.8976   74.5127   -0.6549 O.2     1  UNL1       -0.2751
     43 H          19.9992   73.6160   -1.2135 H       1  UNL1        0.1496
     44 C          22.3494   72.2070    4.4890 C.3     1  UNL1        0.1693
     45 O          21.3829   72.9272    5.2566 O.3     1  UNL1       -0.3794
     46 H          21.5015   72.6595    6.1780 H       1  UNL1        0.2105
@<TRIPOS>BOND
     1    29    30    1
     2    29    28    1
     3    29    36    1
     4    30    31    1
     5    30    41    1
     6    31    32    1
     7    31    34    1
     8    32    33    1
     9    32    35    1
    10    33    44    1
    11    33    36    1
    12    44    45    1
    13    39    40    1
    14    39    41   am
    15    39    42    2
    16    41    43    1
    17    28    25    1
    18    34    37    1
    19    35    38    1
    20    45    46    1
    21    15    16   ar
    22    15    20   ar
    23    15     6    1
    24    16    17   ar
    25    16    21    2
    26    17    18   ar
    27    17    23    1
    28    18    19   ar
    29    18    22    2
    30    19    20   ar
    31     6     7    1
    32     6    11    1
    33     7     8    1
    34     7     9    1
    35     8    13    1
    36     9    10    1
    37     9    12    1
    38    10    11    1
    39    10     5    1
    40    12    14    1
    41     5     4    1
    42     4     1    1
    43     1     2    2
    44     1     3    1
    45     1    24    1
    46    24    25    1
    47    25    26    2
    48    25    27    1
@<TRIPOS>MOLECULE
UD1
 46 48 0 0 0
SMALL
GASTEIGER

@<TRIPOS>ATOM
      1 P          21.5145   73.1203    0.9807 P.3     1  UNL1        0.2189
      2 O          22.6741   73.2561    0.0719 O.2     1  UNL1       -0.5170
      3 O          20.1767   73.5898    0.2175 O.3     1  UNL1       -0.4371
      4 O          21.7413   74.0429    2.2807 O.3     1  UNL1       -0.3112
      5 C          21.3971   73.2487    3.4170 C.3     1  UNL1        0.1811
      6 C          24.5717   74.3729    4.6761 C.3     1  UNL1        0.2383
      7 C          23.5378   75.3313    5.3186 C.3     1  UNL1        0.1895
      8 O          23.9831   75.7794    6.5993 O.3     1  UNL1       -0.3779
      9 C          22.2898   74.4207    5.4540 C.3     1  UNL1        0.1713
     10 C          22.5378   73.2917    4.4350 C.3     1  UNL1        0.1764
     11 O          23.7782   73.5803    3.7675 O.3     1  UNL1       -0.3308
     12 O          22.1956   73.8949    6.7797 O.3     1  UNL1       -0.3794
     13 H          23.2984   76.3696    6.9433 H       1  UNL1        0.2106
     14 H          22.1019   74.6513    7.3741 H       1  UNL1        0.2105
     15 N          25.5941   75.1247    3.9474 N.ar    1  UNL1       -0.2551
     16 C          25.3175   75.6140    2.7262 C.ar    1  UNL1        0.3323
     17 N          26.2374   76.3126    2.0347 N.ar    1  UNL1       -0.2743
     18 C          27.4622   76.5257    2.5566 C.ar    1  UNL1        0.2626
     19 C          27.7687   76.0111    3.8388 C.ar    1  UNL1        0.0795
     20 C          26.8256   75.3185    4.5128 C.ar    1  UNL1        0.0869
     21 O          24.2173   75.4302    2.2421 O.2     1  UNL1       -0.2464
     22 O          28.2962   77.1531    1.9303 O.2     1  UNL1       -0.2670
     23 H          26.0191   76.6623    1.1571 H       1  UNL1        0.1734
     24 O          21.3642   71.5835    1.4330 O.3     1  UNL1       -0.2703
     25 P          21.8192   70.6833    0.1793 P.3     1  UNL1        0.2208
     26 O          21.6679   69.2514    0.5196 O.2     1  UNL1       -0.5170
     27 O          23.3601   70.9907   -0.1720 O.3     1  UNL1       -0.4371
     28 O          20.8999   71.0319   -1.0950 O.3     1  UNL1       -0.2865
     29 C          21.5675   70.5067   -2.2438 C.3     1  UNL1        0.2611
     30 C          21.7159   71.6120   -3.2909 C.3     1  UNL1        0.1582
     31 C          20.3255   72.1370   -3.6660 C.3     1  UNL1        0.1625
     32 C          19.4515   70.9515   -4.0887 C.3     1  UNL1        0.1686
     33 C          19.4715   69.8972   -2.9799 C.3     1  UNL1        0.1760
     34 O          20.4391   73.0625   -4.7486 O.3     1  UNL1       -0.3801
     35 O          18.1110   71.3979   -4.3015 O.3     1  UNL1       -0.3794
     36 O          20.8053   69.4292   -2.7836 O.3     1  UNL1       -0.3263
     37 H          19.5438   73.3669   -4.9510 H       1  UNL1        0.2105
     38 H          17.5962   70.6218   -4.5646 H       1  UNL1        0.2105
     39 C          23.4924   73.2678   -3.4827 C.2     1  UNL1        0.2231
     40 C          24.3207   74.3918   -2.9146 C.3     1  UNL1        0.0946
     41 N          22.5205   72.7043   -2.7396 N.am    1  UNL1       -0.2994
     42 O          23.7013   72.8700   -4.6089 O.2     1  UNL1       -0.2751
     43 H          22.3533   73.0223   -1.8382 H       1  UNL1        0.1496
     44 C          18.5754   68.7228   -3.3782 C.3     1  UNL1        0.1693
     45 O          19.3832   67.5721   -3.6342 O.3     1  UNL1       -0.3794
     46 H          18.7813   66.8571   -3.8815 H       1  UNL1        0.2105
@<TRIPOS>BOND
     1    29    30    1
     2    29    28    1
     3    29    36    1
     4    30    31    1
     5    30    41    1
     6    31    32    1
     7    31    34    1
     8    32    33    1
     9    32    35    1
    10    33    44    1
    11    33    36    1
    12    44    45    1
    13    39    40    1
    14    39    41   am
    15    39    42    2
    16    41    43    1
    17    28    25    1
    18    34    37    1
    19    35    38    1
    20    45    46    1
    21    15    16   ar
    22    15    20   ar
    23    15     6    1
    24    16    17   ar
    25    16    21    2
    26    17    18   ar
    27    17    23    1
    28    18    19   ar
    29    18    22    2
    30    19    20   ar
    31     6     7    1
    32     6    11    1
    33     7     8    1
    34     7     9    1
    35     8    13    1
    36     9    10    1
    37     9    12    1
    38    10    11    1
    39    10     5    1
    40    12    14    1
    41     5     4    1
    42     4     1    1
    43     1     2    2
    44     1     3    1
    45     1    24    1
    46    24    25    1
    47    25    26    2
    48    25    27    1
@<TRIPOS>MOLECULE
UD1
 46 48 0 0 0
SMALL
GASTEIGER

@<TRIPOS>ATOM
      1 P          19.6651   70.3381   -3.1241 P.3     1  UNL1        0.2189
      2 O          18.8420   69.6404   -2.1119 O.2     1  UNL1       -0.5170
      3 O          19.8307   69.3989   -4.4214 O.3     1  UNL1       -0.4371
      4 O          21.1170   70.6587   -2.5059 O.3     1  UNL1       -0.3112
      5 C          20.9339   70.8637   -1.1042 C.3     1  UNL1        0.1811
      6 C          21.6665   73.6513    1.0452 C.3     1  UNL1        0.2383
      7 C          23.0104   73.3417    0.3395 C.3     1  UNL1        0.1895
      8 O          23.7881   74.5284    0.1776 O.3     1  UNL1       -0.3779
      9 C          22.5391   72.7973   -1.0341 C.3     1  UNL1        0.1713
     10 C          21.0860   72.3510   -0.7813 C.3     1  UNL1        0.1764
     11 O          20.8018   72.5809    0.6093 O.3     1  UNL1       -0.3308
     12 O          22.5879   73.8271   -2.0239 O.3     1  UNL1       -0.3794
     13 H          24.6077   74.2681   -0.2651 H       1  UNL1        0.2106
     14 H          23.5112   74.1046   -2.0929 H       1  UNL1        0.2105
     15 N          21.8257   73.6263    2.4997 N.ar    1  UNL1       -0.2551
     16 C          21.8295   72.4494    3.1494 C.ar    1  UNL1        0.3323
     17 N          21.9782   72.3961    4.4863 N.ar    1  UNL1       -0.2743
     18 C          22.1173   73.5314    5.2003 C.ar    1  UNL1        0.2626
     19 C          22.1091   74.7776    4.5296 C.ar    1  UNL1        0.0795
     20 C          21.9637   74.8018    3.1874 C.ar    1  UNL1        0.0869
     21 O          21.7052   71.4168    2.5194 O.2     1  UNL1       -0.2464
     22 O          22.2470   73.4847    6.4096 O.2     1  UNL1       -0.2670
     23 H          21.9833   71.5382    4.9381 H       1  UNL1        0.1734
     24 O          18.9455   71.7143   -3.5450 O.3     1  UNL1       -0.2703
     25 P          19.9683   72.4977   -4.5091 P.3     1  UNL1        0.2208
     26 O          21.1521   71.6484   -4.7665 O.2     1  UNL1       -0.5170
     27 O          20.4343   73.8660   -3.8000 O.3     1  UNL1       -0.4371
     28 O          19.2394   72.8387   -5.9031 O.3     1  UNL1       -0.2865
     29 C          19.7008   71.8807   -6.8573 C.3     1  UNL1        0.2611
     30 C          19.6485   72.4962   -8.2567 C.3     1  UNL1        0.1582
     31 C          18.2072   72.9168   -8.5657 C.3     1  UNL1        0.1625
     32 C          17.2875   71.7104   -8.3491 C.3     1  UNL1        0.1686
     33 C          17.5158   71.1560   -6.9414 C.3     1  UNL1        0.1760
     34 O          18.1167   73.3546   -9.9227 O.3     1  UNL1       -0.3801
     35 O          15.9249   72.1171   -8.4890 O.3     1  UNL1       -0.3794
     36 O          18.8691   70.7235   -6.8072 O.3     1  UNL1       -0.3263
     37 H          17.1959   73.6093  -10.0733 H       1  UNL1        0.2105
     38 H          15.3816   71.3294   -8.3444 H       1  UNL1        0.2105
     39 C          20.0188   74.8980   -8.0879 C.2     1  UNL1        0.2231
     40 C          20.9201   76.1050   -8.1425 C.3     1  UNL1        0.0946
     41 N          20.5237   73.6690   -8.3091 N.am    1  UNL1       -0.2994
     42 O          18.8385   75.0331   -7.8454 O.2     1  UNL1       -0.2751
     43 H          21.4682   73.5606   -8.5034 H       1  UNL1        0.1496
     44 C          16.5784   69.9704   -6.7033 C.3     1  UNL1        0.1693
     45 O          16.8199   69.4249   -5.4047 O.3     1  UNL1       -0.3794
     46 H          16.2106   68.6823   -5.2954 H       1  UNL1        0.2105
@<TRIPOS>BOND
     1    29    30    1
     2    29    28    1
     3    29    36    1
     4    30    31    1
     5    30    41    1
     6    31    32    1
     7    31    34    1
     8    32    33    1
     9    32    35    1
    10    33    44    1
    11    33    36    1
    12    44    45    1
    13    39    40    1
    14    39    41   am
    15    39    42    2
    16    41    43    1
    17    28    25    1
    18    34    37    1
    19    35    38    1
    20    45    46    1
    21    15    16   ar
    22    15    20   ar
    23    15     6    1
    24    16    17   ar
    25    16    21    2
    26    17    18   ar
    27    17    23    1
    28    18    19   ar
    29    18    22    2
    30    19    20   ar
    31     6     7    1
    32     6    11    1
    33     7     8    1
    34     7     9    1
    35     8    13    1
    36     9    10    1
    37     9    12    1
    38    10    11    1
    39    10     5    1
    40    12    14    1
    41     5     4    1
    42     4     1    1
    43     1     2    2
    44     1     3    1
    45     1    24    1
    46    24    25    1
    47    25    26    2
    48    25    27    1
@<TRIPOS>MOLECULE
UD1
 46 48 0 0 0
SMALL
GASTEIGER

@<TRIPOS>ATOM
      1 P          20.2810   70.7079   -3.7856 P.3     1  UNL1        0.2189
      2 O          21.2660   69.6919   -3.3538 O.2     1  UNL1       -0.5170
      3 O          19.0669   70.7613   -2.7293 O.3     1  UNL1       -0.4371
      4 O          19.7095   70.3167   -5.2392 O.3     1  UNL1       -0.3112
      5 C          18.2963   70.5201   -5.1968 C.3     1  UNL1        0.1811
      6 C          18.9384   72.9005   -7.8139 C.3     1  UNL1        0.2383
      7 C          18.8327   71.5387   -8.5451 C.3     1  UNL1        0.1895
      8 O          18.3191   71.7068   -9.8669 O.3     1  UNL1       -0.3779
      9 C          17.8246   70.7678   -7.6537 C.3     1  UNL1        0.1713
     10 C          17.8877   71.4990   -6.2987 C.3     1  UNL1        0.1764
     11 O          18.8723   72.5400   -6.4177 O.3     1  UNL1       -0.3308
     12 O          16.5092   70.8406   -8.2079 O.3     1  UNL1       -0.3794
     13 H          18.2788   70.8267  -10.2659 H       1  UNL1        0.2106
     14 H          16.5489   70.4206   -9.0775 H       1  UNL1        0.2105
     15 N          20.2109   73.5559   -8.1181 N.ar    1  UNL1       -0.2551
     16 C          21.3067   72.8108   -8.3449 C.ar    1  UNL1        0.3323
     17 N          22.4895   73.3866   -8.6308 N.ar    1  UNL1       -0.2743
     18 C          22.5958   74.7296   -8.6852 C.ar    1  UNL1        0.2626
     19 C          21.4515   75.5262   -8.4426 C.ar    1  UNL1        0.0795
     20 C          20.2764   74.9224   -8.1633 C.ar    1  UNL1        0.0869
     21 O          21.2267   71.5983   -8.2994 O.2     1  UNL1       -0.2464
     22 O          23.6658   75.2514   -8.9389 O.2     1  UNL1       -0.2670
     23 H          23.2686   72.8336   -8.7963 H       1  UNL1        0.1734
     24 O          20.9933   72.1488   -3.8592 O.3     1  UNL1       -0.2703
     25 P          22.4788   71.9636   -3.2689 P.3     1  UNL1        0.2208
     26 O          23.4694   72.3680   -4.2908 O.2     1  UNL1       -0.5170
     27 O          22.7128   70.4196   -2.8771 O.3     1  UNL1       -0.4371
     28 O          22.6551   72.8810   -1.9583 O.3     1  UNL1       -0.2865
     29 C          21.3563   73.0367   -1.3836 C.3     1  UNL1        0.2611
     30 C          21.2497   74.4223   -0.7443 C.3     1  UNL1        0.1582
     31 C          22.3363   74.5648    0.3274 C.3     1  UNL1        0.1625
     32 C          22.2219   73.3870    1.3010 C.3     1  UNL1        0.1686
     33 C          22.2583   72.0792    0.5075 C.3     1  UNL1        0.1760
     34 O          22.1541   75.7935    1.0335 O.3     1  UNL1       -0.3801
     35 O          23.3144   73.4199    2.2213 O.3     1  UNL1       -0.3794
     36 O          21.1526   72.0310   -0.3934 O.3     1  UNL1       -0.3263
     37 H          22.8573   75.8420    1.6957 H       1  UNL1        0.2105
     38 H          23.2039   72.6627    2.8137 H       1  UNL1        0.2105
     39 C          20.6578   76.5510   -1.7703 C.2     1  UNL1        0.2231
     40 C          20.8483   77.6091   -2.8269 C.3     1  UNL1        0.0946
     41 N          21.4347   75.4507   -1.7703 N.am    1  UNL1       -0.2994
     42 O          19.8044   76.6898   -0.9202 O.2     1  UNL1       -0.2751
     43 H          22.1176   75.3393   -2.4506 H       1  UNL1        0.1496
     44 C          22.1773   70.8955    1.4737 C.3     1  UNL1        0.1693
     45 O          21.7857   69.7221    0.7583 O.3     1  UNL1       -0.3794
     46 H          21.7465   69.0019    1.4020 H       1  UNL1        0.2105
@<TRIPOS>BOND
     1    29    30    1
     2    29    28    1
     3    29    36    1
     4    30    31    1
     5    30    41    1
     6    31    32    1
     7    31    34    1
     8    32    33    1
     9    32    35    1
    10    33    44    1
    11    33    36    1
    12    44    45    1
    13    39    40    1
    14    39    41   am
    15    39    42    2
    16    41    43    1
    17    28    25    1
    18    34    37    1
    19    35    38    1
    20    45    46    1
    21    15    16   ar
    22    15    20   ar
    23    15     6    1
    24    16    17   ar
    25    16    21    2
    26    17    18   ar
    27    17    23    1
    28    18    19   ar
    29    18    22    2
    30    19    20   ar
    31     6     7    1
    32     6    11    1
    33     7     8    1
    34     7     9    1
    35     8    13    1
    36     9    10    1
    37     9    12    1
    38    10    11    1
    39    10     5    1
    40    12    14    1
    41     5     4    1
    42     4     1    1
    43     1     2    2
    44     1     3    1
    45     1    24    1
    46    24    25    1
    47    25    26    2
    48    25    27    1
@<TRIPOS>MOLECULE
UD1
 46 48 0 0 0
SMALL
GASTEIGER

@<TRIPOS>ATOM
      1 P          21.8810   75.4422   -3.4334 P.3     1  UNL1        0.2189
      2 O          22.8648   74.4032   -3.0574 O.2     1  UNL1       -0.5170
      3 O          22.5735   76.8932   -3.3476 O.3     1  UNL1       -0.4371
      4 O          20.6288   75.3856   -2.4225 O.3     1  UNL1       -0.3112
      5 C          20.7462   76.5142   -1.5548 C.3     1  UNL1        0.1811
      6 C          21.7662   74.1023    0.9089 C.3     1  UNL1        0.2383
      7 C          23.0580   74.8921    0.5807 C.3     1  UNL1        0.1895
      8 O          23.9217   74.9538    1.7163 O.3     1  UNL1       -0.3779
      9 C          22.5011   76.2969    0.2322 C.3     1  UNL1        0.1713
     10 C          21.0261   76.0358   -0.1293 C.3     1  UNL1        0.1764
     11 O          20.8058   74.6179   -0.0373 O.3     1  UNL1       -0.3308
     12 O          22.5996   77.1684    1.3607 O.3     1  UNL1       -0.3794
     13 H          24.7034   75.4556    1.4467 H       1  UNL1        0.2106
     14 H          23.5392   77.2440    1.5739 H       1  UNL1        0.2105
     15 N          21.9697   72.6672    0.7077 N.ar    1  UNL1       -0.2551
     16 C          22.3620   71.8988    1.7388 C.ar    1  UNL1        0.3323
     17 N          22.5530   70.5753    1.5836 N.ar    1  UNL1       -0.2743
     18 C          22.3612   69.9976    0.3806 C.ar    1  UNL1        0.2626
     19 C          21.9539   70.7957   -0.7149 C.ar    1  UNL1        0.0795
     20 C          21.7644   72.1198   -0.5301 C.ar    1  UNL1        0.0869
     21 O          22.5390   72.4053    2.8300 O.2     1  UNL1       -0.2464
     22 O          22.5383   68.8018    0.2380 O.2     1  UNL1       -0.2670
     23 H          22.8315   70.0355    2.3394 H       1  UNL1        0.1734
     24 O          21.3696   75.1785   -4.9360 O.3     1  UNL1       -0.2703
     25 P          21.2273   73.5847   -5.1057 P.3     1  UNL1        0.2208
     26 O          20.8197   72.9858   -3.8157 O.2     1  UNL1       -0.5170
     27 O          22.6415   72.9644   -5.5614 O.3     1  UNL1       -0.4371
     28 O          20.1155   73.2598   -6.2231 O.3     1  UNL1       -0.2865
     29 C          20.2440   71.8738   -6.5451 C.3     1  UNL1        0.2611
     30 C          20.3845   71.7183   -8.0604 C.3     1  UNL1        0.1582
     31 C          19.1508   72.3201   -8.7426 C.3     1  UNL1        0.1625
     32 C          17.8959   71.6841   -8.1354 C.3     1  UNL1        0.1686
     33 C          17.9417   71.8449   -6.6144 C.3     1  UNL1        0.1760
     34 O          19.1987   72.0488  -10.1445 O.3     1  UNL1       -0.3801
     35 O          16.7330   72.3345   -8.6514 O.3     1  UNL1       -0.3794
     36 O          19.0875   71.1730   -6.0928 O.3     1  UNL1       -0.3263
     37 H          18.4063   72.4444  -10.5329 H       1  UNL1        0.2105
     38 H          15.9679   71.9047   -8.2435 H       1  UNL1        0.2105
     39 C          21.5114   73.7055   -8.9062 C.2     1  UNL1        0.2231
     40 C          22.7497   74.4260   -9.3749 C.3     1  UNL1        0.0946
     41 N          21.5873   72.4188   -8.5154 N.am    1  UNL1       -0.2994
     42 O          20.4461   74.2841   -8.8815 O.2     1  UNL1       -0.2751
     43 H          22.4397   71.9555   -8.5352 H       1  UNL1        0.1496
     44 C          16.6766   71.2415   -6.0007 C.3     1  UNL1        0.1693
     45 O          16.2242   70.1557   -6.8122 O.3     1  UNL1       -0.3794
     46 H          15.4275   69.8050   -6.3915 H       1  UNL1        0.2105
@<TRIPOS>BOND
     1    29    30    1
     2    29    28    1
     3    29    36    1
     4    30    31    1
     5    30    41    1
     6    31    32    1
     7    31    34    1
     8    32    33    1
     9    32    35    1
    10    33    44    1
    11    33    36    1
    12    44    45    1
    13    39    40    1
    14    39    41   am
    15    39    42    2
    16    41    43    1
    17    28    25    1
    18    34    37    1
    19    35    38    1
    20    45    46    1
    21    15    16   ar
    22    15    20   ar
    23    15     6    1
    24    16    17   ar
    25    16    21    2
    26    17    18   ar
    27    17    23    1
    28    18    19   ar
    29    18    22    2
    30    19    20   ar
    31     6     7    1
    32     6    11    1
    33     7     8    1
    34     7     9    1
    35     8    13    1
    36     9    10    1
    37     9    12    1
    38    10    11    1
    39    10     5    1
    40    12    14    1
    41     5     4    1
    42     4     1    1
    43     1     2    2
    44     1     3    1
    45     1    24    1
    46    24    25    1
    47    25    26    2
    48    25    27    1
@<TRIPOS>MOLECULE
UD1
 46 48 0 0 0
SMALL
GASTEIGER

@<TRIPOS>ATOM
      1 P          22.3471   72.8147   -4.7472 P.3     1  UNL1        0.2189
      2 O          21.6630   74.0945   -4.4593 O.2     1  UNL1       -0.5170
      3 O          23.7505   72.7672   -3.9592 O.3     1  UNL1       -0.4371
      4 O          22.6173   72.6955   -6.3301 O.3     1  UNL1       -0.3112
      5 C          21.5213   73.3346   -6.9863 C.3     1  UNL1        0.1811
      6 C          18.2766   72.2940   -8.1336 C.3     1  UNL1        0.2383
      7 C          19.1971   72.1263   -9.3684 C.3     1  UNL1        0.1895
      8 O          18.7464   71.0567  -10.2004 O.3     1  UNL1       -0.3779
      9 C          20.5602   71.7816   -8.7140 C.3     1  UNL1        0.1713
     10 C          20.4260   72.3058   -7.2711 C.3     1  UNL1        0.1764
     11 O          19.1329   72.9240   -7.1572 O.3     1  UNL1       -0.3308
     12 O          20.7760   70.3688   -8.7218 O.3     1  UNL1       -0.3794
     13 H          19.3587   71.0057  -10.9473 H       1  UNL1        0.2106
     14 H          20.7907   70.0937   -9.6482 H       1  UNL1        0.2105
     15 N          17.1348   73.1530   -8.4497 N.ar    1  UNL1       -0.2551
     16 C          16.0008   73.0434   -7.7360 C.ar    1  UNL1        0.3323
     17 N          14.9363   73.8233   -8.0021 N.ar    1  UNL1       -0.2743
     18 C          14.9886   74.7265   -9.0018 C.ar    1  UNL1        0.2626
     19 C          16.1742   74.8482   -9.7649 C.ar    1  UNL1        0.0795
     20 C          17.2289   74.0571   -9.4732 C.ar    1  UNL1        0.0869
     21 O          15.9382   72.2335   -6.8312 O.2     1  UNL1       -0.2464
     22 O          14.0251   75.4288   -9.2464 O.2     1  UNL1       -0.2670
     23 H          14.1279   73.7340   -7.4741 H       1  UNL1        0.1734
     24 O          21.4195   71.5905   -4.2676 O.3     1  UNL1       -0.2703
     25 P          22.1503   70.9227   -2.9991 P.3     1  UNL1        0.2208
     26 O          23.5671   70.6549   -3.3307 O.2     1  UNL1       -0.5170
     27 O          21.4171   69.5395   -2.6232 O.3     1  UNL1       -0.4371
     28 O          22.0738   71.9273   -1.7438 O.3     1  UNL1       -0.2865
     29 C          20.8738   71.6138   -1.0347 C.3     1  UNL1        0.2611
     30 C          20.0679   72.8953   -0.8146 C.3     1  UNL1        0.1582
     31 C          20.9197   73.8932   -0.0222 C.3     1  UNL1        0.1625
     32 C          21.4163   73.2078    1.2552 C.3     1  UNL1        0.1686
     33 C          22.1233   71.9041    0.8786 C.3     1  UNL1        0.1760
     34 O          20.1287   75.0332    0.3187 O.3     1  UNL1       -0.3801
     35 O          22.3306   74.0697    1.9355 O.3     1  UNL1       -0.3794
     36 O          21.2054   71.0298    0.2232 O.3     1  UNL1       -0.3263
     37 H          20.7026   75.6333    0.8145 H       1  UNL1        0.2105
     38 H          22.6184   73.6000    2.7312 H       1  UNL1        0.2105
     39 C          18.4570   73.3386   -2.5874 C.2     1  UNL1        0.2231
     40 C          18.0880   73.9369   -3.9209 C.3     1  UNL1        0.0946
     41 N          19.7088   73.4767   -2.1098 N.am    1  UNL1       -0.2994
     42 O          17.6269   72.7321   -1.9445 O.2     1  UNL1       -0.2751
     43 H          20.3733   73.9618   -2.6242 H       1  UNL1        0.1496
     44 C          22.6517   71.2277    2.1452 C.3     1  UNL1        0.1693
     45 O          23.2298   69.9656    1.8060 O.3     1  UNL1       -0.3794
     46 H          23.5493   69.5736    2.6300 H       1  UNL1        0.2105
@<TRIPOS>BOND
     1    29    30    1
     2    29    28    1
     3    29    36    1
     4    30    31    1
     5    30    41    1
     6    31    32    1
     7    31    34    1
     8    32    33    1
     9    32    35    1
    10    33    44    1
    11    33    36    1
    12    44    45    1
    13    39    40    1
    14    39    41   am
    15    39    42    2
    16    41    43    1
    17    28    25    1
    18    34    37    1
    19    35    38    1
    20    45    46    1
    21    15    16   ar
    22    15    20   ar
    23    15     6    1
    24    16    17   ar
    25    16    21    2
    26    17    18   ar
    27    17    23    1
    28    18    19   ar
    29    18    22    2
    30    19    20   ar
    31     6     7    1
    32     6    11    1
    33     7     8    1
    34     7     9    1
    35     8    13    1
    36     9    10    1
    37     9    12    1
    38    10    11    1
    39    10     5    1
    40    12    14    1
    41     5     4    1
    42     4     1    1
    43     1     2    2
    44     1     3    1
    45     1    24    1
    46    24    25    1
    47    25    26    2
    48    25    27    1
@<TRIPOS>MOLECULE
UD1
 46 48 0 0 0
SMALL
GASTEIGER

@<TRIPOS>ATOM
      1 P          18.8925   73.2142   -2.9859 P.3     1  UNL1        0.2189
      2 O          19.4151   73.3174   -4.3661 O.2     1  UNL1       -0.5170
      3 O          18.6890   74.6909   -2.3772 O.3     1  UNL1       -0.4371
      4 O          19.9409   72.3992   -2.0752 O.3     1  UNL1       -0.3112
      5 C          20.4118   73.3044   -1.0756 C.3     1  UNL1        0.1811
      6 C          22.8028   72.5330    1.4965 C.3     1  UNL1        0.2383
      7 C          22.0818   71.1897    1.2213 C.3     1  UNL1        0.1895
      8 O          22.9564   70.0841    1.4490 O.3     1  UNL1       -0.3779
      9 C          21.7261   71.3132   -0.2832 C.3     1  UNL1        0.1713
     10 C          21.7692   72.8294   -0.5548 C.3     1  UNL1        0.1764
     11 O          22.0699   73.4807    0.6913 O.3     1  UNL1       -0.3308
     12 O          22.6915   70.6275   -1.0835 O.3     1  UNL1       -0.3794
     13 H          22.4490   69.2822    1.2615 H       1  UNL1        0.2106
     14 H          22.6578   69.6967   -0.8253 H       1  UNL1        0.2105
     15 N          22.7192   72.8866    2.9140 N.ar    1  UNL1       -0.2551
     16 C          21.6544   72.4967    3.6362 C.ar    1  UNL1        0.3323
     17 N          21.5529   72.8043    4.9429 N.ar    1  UNL1       -0.2743
     18 C          22.5204   73.5213    5.5493 C.ar    1  UNL1        0.2626
     19 C          23.6440   73.9433    4.7994 C.ar    1  UNL1        0.0795
     20 C          23.7230   73.6163    3.4916 C.ar    1  UNL1        0.0869
     21 O          20.7736   71.8494    3.1035 O.2     1  UNL1       -0.2464
     22 O          22.4274   73.8041    6.7295 O.2     1  UNL1       -0.2670
     23 H          20.7801   72.5108    5.4497 H       1  UNL1        0.1734
     24 O          17.4818   72.4405   -3.0027 O.3     1  UNL1       -0.2703
     25 P          16.5445   73.2057   -4.0634 P.3     1  UNL1        0.2208
     26 O          16.3552   74.6083   -3.6323 O.2     1  UNL1       -0.5170
     27 O          15.1136   72.4720   -4.1435 O.3     1  UNL1       -0.4371
     28 O          17.2413   73.1796   -5.5140 O.3     1  UNL1       -0.2865
     29 C          16.6379   72.1103   -6.2445 C.3     1  UNL1        0.2611
     30 C          17.7223   71.1269   -6.6883 C.3     1  UNL1        0.1582
     31 C          18.7446   71.8671   -7.5581 C.3     1  UNL1        0.1625
     32 C          18.0000   72.5737   -8.6958 C.3     1  UNL1        0.1686
     33 C          16.8964   73.4505   -8.1001 C.3     1  UNL1        0.1760
     34 O          19.6782   70.9316   -8.1008 O.3     1  UNL1       -0.3801
     35 O          18.9143   73.3882   -9.4320 O.3     1  UNL1       -0.3794
     36 O          15.9662   72.6365   -7.3869 O.3     1  UNL1       -0.3263
     37 H          20.3012   71.4389   -8.6392 H       1  UNL1        0.2105
     38 H          18.4051   73.8142  -10.1361 H       1  UNL1        0.2105
     39 C          17.7993   69.5945   -4.7962 C.2     1  UNL1        0.2231
     40 C          18.4883   69.0229   -3.5834 C.3     1  UNL1        0.0946
     41 N          18.3914   70.5710   -5.5103 N.am    1  UNL1       -0.2994
     42 O          16.7112   69.1756   -5.1290 O.2     1  UNL1       -0.2751
     43 H          19.2621   70.9065   -5.2441 H       1  UNL1        0.1496
     44 C          16.1674   74.1860   -9.2265 C.3     1  UNL1        0.1693
     45 O          15.3464   75.2151   -8.6707 O.3     1  UNL1       -0.3794
     46 H          14.9058   75.6524   -9.4119 H       1  UNL1        0.2105
@<TRIPOS>BOND
     1    29    30    1
     2    29    28    1
     3    29    36    1
     4    30    31    1
     5    30    41    1
     6    31    32    1
     7    31    34    1
     8    32    33    1
     9    32    35    1
    10    33    44    1
    11    33    36    1
    12    44    45    1
    13    39    40    1
    14    39    41   am
    15    39    42    2
    16    41    43    1
    17    28    25    1
    18    34    37    1
    19    35    38    1
    20    45    46    1
    21    15    16   ar
    22    15    20   ar
    23    15     6    1
    24    16    17   ar
    25    16    21    2
    26    17    18   ar
    27    17    23    1
    28    18    19   ar
    29    18    22    2
    30    19    20   ar
    31     6     7    1
    32     6    11    1
    33     7     8    1
    34     7     9    1
    35     8    13    1
    36     9    10    1
    37     9    12    1
    38    10    11    1
    39    10     5    1
    40    12    14    1
    41     5     4    1
    42     4     1    1
    43     1     2    2
    44     1     3    1
    45     1    24    1
    46    24    25    1
    47    25    26    2
    48    25    27    1
@<TRIPOS>MOLECULE
UD1
 46 48 0 0 0
SMALL
GASTEIGER

@<TRIPOS>ATOM
      1 P          20.7408   69.9869   -2.4655 P.3     1  UNL1        0.2189
      2 O          22.1019   70.2539   -2.9802 O.2     1  UNL1       -0.5170
      3 O          20.1209   68.7094   -3.2248 O.3     1  UNL1       -0.4371
      4 O          19.8066   71.2717   -2.7286 O.3     1  UNL1       -0.3112
      5 C          19.6188   71.3645   -4.1416 C.3     1  UNL1        0.1811
      6 C          16.7501   71.9454   -6.2298 C.3     1  UNL1        0.2383
      7 C          17.1407   70.4722   -6.5078 C.3     1  UNL1        0.1895
      8 O          15.9906   69.6916   -6.8355 O.3     1  UNL1       -0.3779
      9 C          17.7391   70.0315   -5.1466 C.3     1  UNL1        0.1713
     10 C          18.1228   71.3565   -4.4598 C.3     1  UNL1        0.1764
     11 O          17.8120   72.4207   -5.3753 O.3     1  UNL1       -0.3308
     12 O          16.7640   69.3254   -4.3765 O.3     1  UNL1       -0.3794
     13 H          16.3008   68.7898   -6.9967 H       1  UNL1        0.2106
     14 H          16.5215   68.5402   -4.8851 H       1  UNL1        0.2105
     15 N          16.7053   72.7146   -7.4739 N.ar    1  UNL1       -0.2551
     16 C          17.7803   72.7397   -8.2808 C.ar    1  UNL1        0.3323
     17 N          17.7660   73.4355   -9.4331 N.ar    1  UNL1       -0.2743
     18 C          16.6682   74.1304   -9.7936 C.ar    1  UNL1        0.2626
     19 C          15.5315   74.1175   -8.9506 C.ar    1  UNL1        0.0795
     20 C          15.5712   73.4069   -7.8031 C.ar    1  UNL1        0.0869
     21 O          18.7779   72.1180   -7.9693 O.2     1  UNL1       -0.2464
     22 O          16.6558   74.7638  -10.8329 O.2     1  UNL1       -0.2670
     23 H          18.5487   73.4387  -10.0053 H       1  UNL1        0.1734
     24 O          20.8129   69.6906   -0.8857 O.3     1  UNL1       -0.2703
     25 P          21.8672   70.7355   -0.2644 P.3     1  UNL1        0.2208
     26 O          23.2419   70.3171   -0.6162 O.2     1  UNL1       -0.5170
     27 O          21.7105   70.7685    1.3377 O.3     1  UNL1       -0.4371
     28 O          21.5841   72.2037   -0.8601 O.3     1  UNL1       -0.2865
     29 C          22.7979   72.9457   -0.7280 C.3     1  UNL1        0.2611
     30 C          22.5085   74.2630   -0.0063 C.3     1  UNL1        0.1582
     31 C          21.4732   75.0579   -0.8099 C.3     1  UNL1        0.1625
     32 C          21.9751   75.2003   -2.2507 C.3     1  UNL1        0.1686
     33 C          22.3019   73.8117   -2.8042 C.3     1  UNL1        0.1760
     34 O          21.3056   76.3518   -0.2275 O.3     1  UNL1       -0.3801
     35 O          20.9610   75.8093   -3.0521 O.3     1  UNL1       -0.3794
     36 O          23.3339   73.2117   -2.0223 O.3     1  UNL1       -0.3263
     37 H          20.6474   76.8160   -0.7629 H       1  UNL1        0.2105
     38 H          21.3176   75.8791   -3.9490 H       1  UNL1        0.2105
     39 C          22.4114   74.6993    2.3884 C.2     1  UNL1        0.2231
     40 C          21.8696   74.4108    3.7651 C.3     1  UNL1        0.0946
     41 N          21.9821   73.9835    1.3313 N.am    1  UNL1       -0.2994
     42 O          23.2347   75.5756    2.2322 O.2     1  UNL1       -0.2751
     43 H          21.3234   73.2819    1.4560 H       1  UNL1        0.1496
     44 C          22.7734   73.9400   -4.2541 C.3     1  UNL1        0.1693
     45 O          23.8612   73.0420   -4.4828 O.3     1  UNL1       -0.3794
     46 H          24.1277   73.1545   -5.4053 H       1  UNL1        0.2105
@<TRIPOS>BOND
     1    29    30    1
     2    29    28    1
     3    29    36    1
     4    30    31    1
     5    30    41    1
     6    31    32    1
     7    31    34    1
     8    32    33    1
     9    32    35    1
    10    33    44    1
    11    33    36    1
    12    44    45    1
    13    39    40    1
    14    39    41   am
    15    39    42    2
    16    41    43    1
    17    28    25    1
    18    34    37    1
    19    35    38    1
    20    45    46    1
    21    15    16   ar
    22    15    20   ar
    23    15     6    1
    24    16    17   ar
    25    16    21    2
    26    17    18   ar
    27    17    23    1
    28    18    19   ar
    29    18    22    2
    30    19    20   ar
    31     6     7    1
    32     6    11    1
    33     7     8    1
    34     7     9    1
    35     8    13    1
    36     9    10    1
    37     9    12    1
    38    10    11    1
    39    10     5    1
    40    12    14    1
    41     5     4    1
    42     4     1    1
    43     1     2    2
    44     1     3    1
    45     1    24    1
    46    24    25    1
    47    25    26    2
    48    25    27    1
@<TRIPOS>MOLECULE
UD1
 46 48 0 0 0
SMALL
GASTEIGER

@<TRIPOS>ATOM
      1 P          22.9807   73.5495   -3.6179 P.3     1  UNL1        0.2189
      2 O          23.0140   73.8116   -2.1622 O.2     1  UNL1       -0.5170
      3 O          22.8803   71.9632   -3.8754 O.3     1  UNL1       -0.4371
      4 O          24.3260   74.1181   -4.2958 O.3     1  UNL1       -0.3112
      5 C          24.4303   75.4921   -3.9195 C.3     1  UNL1        0.1811
      6 C          28.0045   75.5617   -4.3036 C.3     1  UNL1        0.2383
      7 C          27.5340   76.9532   -4.7962 C.3     1  UNL1        0.1895
      8 O          28.5290   77.9468   -4.5473 O.3     1  UNL1       -0.3779
      9 C          26.2758   77.1992   -3.9235 C.3     1  UNL1        0.1713
     10 C          25.8590   75.7894   -3.4617 C.3     1  UNL1        0.1764
     11 O          26.7699   74.8535   -4.0630 O.3     1  UNL1       -0.3308
     12 O          26.5981   78.0251   -2.8025 O.3     1  UNL1       -0.3794
     13 H          28.1760   78.7852   -4.8760 H       1  UNL1        0.2106
     14 H          26.9076   78.8691   -3.1572 H       1  UNL1        0.2105
     15 N          28.7949   74.8861   -5.3333 N.ar    1  UNL1       -0.2551
     16 C          29.8405   74.1207   -4.9754 C.ar    1  UNL1        0.3323
     17 N          30.5827   73.4844   -5.9009 N.ar    1  UNL1       -0.2743
     18 C          30.2920   73.6135   -7.2112 C.ar    1  UNL1        0.2626
     19 C          29.1975   74.4211   -7.6022 C.ar    1  UNL1        0.0795
     20 C          28.4666   75.0438   -6.6528 C.ar    1  UNL1        0.0869
     21 O          30.1152   73.9944   -3.7976 O.2     1  UNL1       -0.2464
     22 O          30.9652   73.0426   -8.0491 O.2     1  UNL1       -0.2670
     23 H          31.3305   72.9325   -5.6246 H       1  UNL1        0.1734
     24 O          21.7027   74.2813   -4.2659 O.3     1  UNL1       -0.2703
     25 P          21.2136   73.3626   -5.4931 P.3     1  UNL1        0.2208
     26 O          22.2902   72.4168   -5.8608 O.2     1  UNL1       -0.5170
     27 O          20.8653   74.2961   -6.7578 O.3     1  UNL1       -0.4371
     28 O          19.9010   72.5388   -5.0584 O.3     1  UNL1       -0.2865
     29 C          20.1093   71.1842   -5.4621 C.3     1  UNL1        0.2611
     30 C          19.0137   70.7772   -6.4490 C.3     1  UNL1        0.1582
     31 C          17.6467   70.9366   -5.7741 C.3     1  UNL1        0.1625
     32 C          17.6577   70.1577   -4.4545 C.3     1  UNL1        0.1686
     33 C          18.8541   70.6137   -3.6167 C.3     1  UNL1        0.1760
     34 O          16.6266   70.4196   -6.6306 O.3     1  UNL1       -0.3801
     35 O          16.4470   70.4117   -3.7395 O.3     1  UNL1       -0.3794
     36 O          20.0665   70.3363   -4.3164 O.3     1  UNL1       -0.3263
     37 H          15.7858   70.5402   -6.1681 H       1  UNL1        0.2105
     38 H          16.4961   69.9039   -2.9171 H       1  UNL1        0.2105
     39 C          19.7692   71.2348   -8.7193 C.2     1  UNL1        0.2231
     40 C          19.8362   72.1183   -9.9388 C.3     1  UNL1        0.0946
     41 N          19.0786   71.6348   -7.6342 N.am    1  UNL1       -0.2994
     42 O          20.3377   70.1639   -8.7144 O.2     1  UNL1       -0.2751
     43 H          18.6238   72.4919   -7.6377 H       1  UNL1        0.1496
     44 C          18.8558   69.8649   -2.2824 C.3     1  UNL1        0.1693
     45 O          18.2642   68.5760   -2.4583 O.3     1  UNL1       -0.3794
     46 H          18.2848   68.1387   -1.5963 H       1  UNL1        0.2105
@<TRIPOS>BOND
     1    29    30    1
     2    29    28    1
     3    29    36    1
     4    30    31    1
     5    30    41    1
     6    31    32    1
     7    31    34    1
     8    32    33    1
     9    32    35    1
    10    33    44    1
    11    33    36    1
    12    44    45    1
    13    39    40    1
    14    39    41   am
    15    39    42    2
    16    41    43    1
    17    28    25    1
    18    34    37    1
    19    35    38    1
    20    45    46    1
    21    15    16   ar
    22    15    20   ar
    23    15     6    1
    24    16    17   ar
    25    16    21    2
    26    17    18   ar
    27    17    23    1
    28    18    19   ar
    29    18    22    2
    30    19    20   ar
    31     6     7    1
    32     6    11    1
    33     7     8    1
    34     7     9    1
    35     8    13    1
    36     9    10    1
    37     9    12    1
    38    10    11    1
    39    10     5    1
    40    12    14    1
    41     5     4    1
    42     4     1    1
    43     1     2    2
    44     1     3    1
    45     1    24    1
    46    24    25    1
    47    25    26    2
    48    25    27    1
@<TRIPOS>MOLECULE
UD1
 46 48 0 0 0
SMALL
GASTEIGER

@<TRIPOS>ATOM
      1 P          22.2411   74.3797   -6.2252 P.3     1  UNL1        0.2189
      2 O          23.2511   75.4467   -6.3986 O.2     1  UNL1       -0.5170
      3 O          22.8898   72.9583   -6.6142 O.3     1  UNL1       -0.4371
      4 O          20.9809   74.6736   -7.1835 O.3     1  UNL1       -0.3112
      5 C          21.1104   73.8101   -8.3140 C.3     1  UNL1        0.1811
      6 C          18.4579   71.6567   -7.1939 C.3     1  UNL1        0.2383
      7 C          17.9085   73.0902   -6.9852 C.3     1  UNL1        0.1895
      8 O          16.4889   73.1207   -7.1370 O.3     1  UNL1       -0.3779
      9 C          18.6042   73.8751   -8.1276 C.3     1  UNL1        0.1713
     10 C          19.8224   73.0047   -8.4920 C.3     1  UNL1        0.1764
     11 O          19.8251   71.8753   -7.6022 O.3     1  UNL1       -0.3308
     12 O          17.7264   74.0124   -9.2471 O.3     1  UNL1       -0.3794
     13 H          16.2115   74.0363   -6.9950 H       1  UNL1        0.2106
     14 H          16.9587   74.5131   -8.9403 H       1  UNL1        0.2105
     15 N          18.4075   70.8943   -5.9459 N.ar    1  UNL1       -0.2551
     16 C          19.4521   70.9305   -5.1004 C.ar    1  UNL1        0.3323
     17 N          19.4317   70.2424   -3.9435 N.ar    1  UNL1       -0.2743
     18 C          18.3591   69.4935   -3.6173 C.ar    1  UNL1        0.2626
     19 C          17.2549   69.4417   -4.5010 C.ar    1  UNL1        0.0795
     20 C          17.2996   70.1459   -5.6522 C.ar    1  UNL1        0.0869
     21 O          20.4268   71.6015   -5.3806 O.2     1  UNL1       -0.2464
     22 O          18.3415   68.8671   -2.5739 O.2     1  UNL1       -0.2670
     23 H          20.1921   70.2837   -3.3433 H       1  UNL1        0.1734
     24 O          21.7532   74.3465   -4.6924 O.3     1  UNL1       -0.2703
     25 P          23.0346   73.9466   -3.8051 P.3     1  UNL1        0.2208
     26 O          24.0186   75.0511   -3.8340 O.2     1  UNL1       -0.5170
     27 O          23.7083   72.6129   -4.4047 O.3     1  UNL1       -0.4371
     28 O          22.5746   73.6775   -2.2864 O.3     1  UNL1       -0.2865
     29 C          21.3332   72.9730   -2.3480 C.3     1  UNL1        0.2611
     30 C          20.3088   73.6760   -1.4556 C.3     1  UNL1        0.1582
     31 C          20.8387   73.7138   -0.0178 C.3     1  UNL1        0.1625
     32 C          21.2042   72.2878    0.4075 C.3     1  UNL1        0.1686
     33 C          22.1637   71.6905   -0.6241 C.3     1  UNL1        0.1760
     34 O          19.8298   74.2324    0.8509 O.3     1  UNL1       -0.3801
     35 O          21.8362   72.3183    1.6886 O.3     1  UNL1       -0.3794
     36 O          21.5258   71.6333   -1.8994 O.3     1  UNL1       -0.3263
     37 H          20.2050   74.2388    1.7422 H       1  UNL1        0.2105
     38 H          22.0497   71.4024    1.9171 H       1  UNL1        0.2105
     39 C          20.8116   76.0593   -1.4170 C.2     1  UNL1        0.2231
     40 C          20.5923   77.4662   -1.9118 C.3     1  UNL1        0.0946
     41 N          20.0965   75.0429   -1.9363 N.am    1  UNL1       -0.2994
     42 O          21.6317   75.8422   -0.5507 O.2     1  UNL1       -0.2751
     43 H          19.4400   75.2163   -2.6295 H       1  UNL1        0.1496
     44 C          22.5606   70.2776   -0.1915 C.3     1  UNL1        0.1693
     45 O          21.5719   69.7562    0.6989 O.3     1  UNL1       -0.3794
     46 H          21.8596   68.8672    0.9469 H       1  UNL1        0.2105
@<TRIPOS>BOND
     1    29    30    1
     2    29    28    1
     3    29    36    1
     4    30    31    1
     5    30    41    1
     6    31    32    1
     7    31    34    1
     8    32    33    1
     9    32    35    1
    10    33    44    1
    11    33    36    1
    12    44    45    1
    13    39    40    1
    14    39    41   am
    15    39    42    2
    16    41    43    1
    17    28    25    1
    18    34    37    1
    19    35    38    1
    20    45    46    1
    21    15    16   ar
    22    15    20   ar
    23    15     6    1
    24    16    17   ar
    25    16    21    2
    26    17    18   ar
    27    17    23    1
    28    18    19   ar
    29    18    22    2
    30    19    20   ar
    31     6     7    1
    32     6    11    1
    33     7     8    1
    34     7     9    1
    35     8    13    1
    36     9    10    1
    37     9    12    1
    38    10    11    1
    39    10     5    1
    40    12    14    1
    41     5     4    1
    42     4     1    1
    43     1     2    2
    44     1     3    1
    45     1    24    1
    46    24    25    1
    47    25    26    2
    48    25    27    1
@<TRIPOS>MOLECULE
UD1
 46 48 0 0 0
SMALL
GASTEIGER

@<TRIPOS>ATOM
      1 P          18.3093   70.7087   -2.8238 P.3     1  UNL1        0.2189
      2 O          16.9337   71.1136   -2.4598 O.2     1  UNL1       -0.5170
      3 O          18.5094   69.1427   -2.5072 O.3     1  UNL1       -0.4371
      4 O          19.3661   71.5681   -1.9649 O.3     1  UNL1       -0.3112
      5 C          20.1511   72.3112   -2.8986 C.3     1  UNL1        0.1811
      6 C          22.7206   72.3932   -0.3849 C.3     1  UNL1        0.2383
      7 C          22.5720   70.8924   -0.7393 C.3     1  UNL1        0.1895
      8 O          23.8135   70.2046   -0.5817 O.3     1  UNL1       -0.3779
      9 C          22.1569   70.9499   -2.2325 C.3     1  UNL1        0.1713
     10 C          21.5995   72.3753   -2.4114 C.3     1  UNL1        0.1764
     11 O          21.6558   73.0228   -1.1289 O.3     1  UNL1       -0.3308
     12 O          23.2916   70.7400   -3.0757 O.3     1  UNL1       -0.3794
     13 H          23.6533   69.2800   -0.8163 H       1  UNL1        0.2106
     14 H          23.6295   69.8571   -2.8745 H       1  UNL1        0.2105
     15 N          22.5432   72.6077    1.0518 N.ar    1  UNL1       -0.2551
     16 C          21.8897   71.6910    1.7866 C.ar    1  UNL1        0.3323
     17 N          21.7153   71.8603    3.1107 N.ar    1  UNL1       -0.2743
     18 C          22.1889   72.9643    3.7228 C.ar    1  UNL1        0.2626
     19 C          22.8736   73.9402    2.9601 C.ar    1  UNL1        0.0795
     20 C          23.0392   73.7427    1.6346 C.ar    1  UNL1        0.0869
     21 O          21.4568   70.6900    1.2490 O.2     1  UNL1       -0.2464
     22 O          22.0276   73.1207    4.9190 O.2     1  UNL1       -0.2670
     23 H          21.2456   71.1866    3.6261 H       1  UNL1        0.1734
     24 O          18.5500   70.9751   -4.3922 O.3     1  UNL1       -0.2703
     25 P          17.1013   70.9671   -5.0927 P.3     1  UNL1        0.2208
     26 O          16.1419   71.7143   -4.2500 O.2     1  UNL1       -0.5170
     27 O          16.5952   69.4483   -5.2632 O.3     1  UNL1       -0.4371
     28 O          17.2000   71.6640   -6.5402 O.3     1  UNL1       -0.2865
     29 C          18.1820   72.6966   -6.4370 C.3     1  UNL1        0.2611
     30 C          17.7174   73.9168   -7.2340 C.3     1  UNL1        0.1582
     31 C          17.5109   73.5107   -8.6975 C.3     1  UNL1        0.1625
     32 C          18.7950   72.8487   -9.2083 C.3     1  UNL1        0.1686
     33 C          19.1766   71.7068   -8.2639 C.3     1  UNL1        0.1760
     34 O          17.2223   74.6707   -9.4802 O.3     1  UNL1       -0.3801
     35 O          18.5759   72.3312  -10.5220 O.3     1  UNL1       -0.3794
     36 O          19.4229   72.2241   -6.9569 O.3     1  UNL1       -0.3263
     37 H          17.0997   74.3698  -10.3911 H       1  UNL1        0.2105
     38 H          19.4070   71.9235  -10.8043 H       1  UNL1        0.2105
     39 C          15.2840   74.0295   -7.2221 C.2     1  UNL1        0.2231
     40 C          13.9857   74.5406   -6.6516 C.3     1  UNL1        0.0946
     41 N          16.4559   74.4126   -6.6798 N.am    1  UNL1       -0.2994
     42 O          15.2738   73.2738   -8.1702 O.2     1  UNL1       -0.2751
     43 H          16.4643   75.0177   -5.9212 H       1  UNL1        0.1496
     44 C          20.4403   71.0179   -8.7832 C.3     1  UNL1        0.1693
     45 O          20.2039   69.6135   -8.9001 O.3     1  UNL1       -0.3794
     46 H          21.0226   69.2183   -9.2290 H       1  UNL1        0.2105
@<TRIPOS>BOND
     1    29    30    1
     2    29    28    1
     3    29    36    1
     4    30    31    1
     5    30    41    1
     6    31    32    1
     7    31    34    1
     8    32    33    1
     9    32    35    1
    10    33    44    1
    11    33    36    1
    12    44    45    1
    13    39    40    1
    14    39    41   am
    15    39    42    2
    16    41    43    1
    17    28    25    1
    18    34    37    1
    19    35    38    1
    20    45    46    1
    21    15    16   ar
    22    15    20   ar
    23    15     6    1
    24    16    17   ar
    25    16    21    2
    26    17    18   ar
    27    17    23    1
    28    18    19   ar
    29    18    22    2
    30    19    20   ar
    31     6     7    1
    32     6    11    1
    33     7     8    1
    34     7     9    1
    35     8    13    1
    36     9    10    1
    37     9    12    1
    38    10    11    1
    39    10     5    1
    40    12    14    1
    41     5     4    1
    42     4     1    1
    43     1     2    2
    44     1     3    1
    45     1    24    1
    46    24    25    1
    47    25    26    2
    48    25    27    1
@<TRIPOS>MOLECULE
UD1
 46 48 0 0 0
SMALL
GASTEIGER

@<TRIPOS>ATOM
      1 P          19.5473   72.7263   -4.8005 P.3     1  UNL1        0.2189
      2 O          20.3765   71.6737   -5.4276 O.2     1  UNL1       -0.5170
      3 O          19.5812   74.0517   -5.7141 O.3     1  UNL1       -0.4371
      4 O          20.1301   73.0682   -3.3389 O.3     1  UNL1       -0.3112
      5 C          21.5341   73.2812   -3.4926 C.3     1  UNL1        0.1811
      6 C          22.5780   71.4862   -0.5574 C.3     1  UNL1        0.2383
      7 C          21.3366   70.7110   -1.0655 C.3     1  UNL1        0.1895
      8 O          21.4356   69.3224   -0.7474 O.3     1  UNL1       -0.3779
      9 C          21.4177   70.9347   -2.5980 C.3     1  UNL1        0.1713
     10 C          22.3014   72.1882   -2.7470 C.3     1  UNL1        0.1764
     11 O          22.6330   72.6400   -1.4230 O.3     1  UNL1       -0.3308
     12 O          22.0235   69.8087   -3.2367 O.3     1  UNL1       -0.3794
     13 H          20.6358   68.8990   -1.0887 H       1  UNL1        0.2106
     14 H          21.4561   69.0472   -3.0572 H       1  UNL1        0.2105
     15 N          22.4006   71.8946    0.8366 N.ar    1  UNL1       -0.2551
     16 C          22.7149   71.0407    1.8262 C.ar    1  UNL1        0.3323
     17 N          22.5657   71.3910    3.1174 N.ar    1  UNL1       -0.2743
     18 C          22.0864   72.6093    3.4400 C.ar    1  UNL1        0.2626
     19 C          21.7458   73.5159    2.4080 C.ar    1  UNL1        0.0795
     20 C          21.9105   73.1406    1.1213 C.ar    1  UNL1        0.0869
     21 O          23.1484   69.9384    1.5513 O.2     1  UNL1       -0.2464
     22 O          21.9465   72.9253    4.6070 O.2     1  UNL1       -0.2670
     23 H          22.8019   70.7642    3.8185 H       1  UNL1        0.1734
     24 O          18.0310   72.2054   -4.6650 O.3     1  UNL1       -0.2703
     25 P          17.0797   73.4892   -4.8553 P.3     1  UNL1        0.2208
     26 O          17.6115   74.6190   -4.0618 O.2     1  UNL1       -0.5170
     27 O          15.5918   73.1348   -4.3525 O.3     1  UNL1       -0.4371
     28 O          17.0353   73.9001   -6.4108 O.3     1  UNL1       -0.2865
     29 C          16.4066   72.8221   -7.1064 C.3     1  UNL1        0.2611
     30 C          17.1021   72.6162   -8.4532 C.3     1  UNL1        0.1582
     31 C          17.0113   73.9117   -9.2675 C.3     1  UNL1        0.1625
     32 C          15.5413   74.3362   -9.3509 C.3     1  UNL1        0.1686
     33 C          14.9643   74.4153   -7.9359 C.3     1  UNL1        0.1760
     34 O          17.5239   73.6879  -10.5822 O.3     1  UNL1       -0.3801
     35 O          15.4484   75.6164   -9.9787 O.3     1  UNL1       -0.3794
     36 O          15.0305   73.1317   -7.3158 O.3     1  UNL1       -0.3263
     37 H          17.4480   74.5264  -11.0582 H       1  UNL1        0.2105
     38 H          14.5086   75.8451  -10.0099 H       1  UNL1        0.2105
     39 C          19.0081   71.1231   -8.7211 C.2     1  UNL1        0.2231
     40 C          20.4558   70.7710   -8.4917 C.3     1  UNL1        0.0946
     41 N          18.5084   72.2739   -8.2311 N.am    1  UNL1       -0.2994
     42 O          18.2927   70.3699   -9.3464 O.2     1  UNL1       -0.2751
     43 H          19.0807   72.8768   -7.7305 H       1  UNL1        0.1496
     44 C          13.5051   74.8701   -8.0062 C.3     1  UNL1        0.1693
     45 O          12.9303   74.4388   -9.2414 O.3     1  UNL1       -0.3794
     46 H          12.0133   74.7452   -9.2454 H       1  UNL1        0.2105
@<TRIPOS>BOND
     1    29    30    1
     2    29    28    1
     3    29    36    1
     4    30    31    1
     5    30    41    1
     6    31    32    1
     7    31    34    1
     8    32    33    1
     9    32    35    1
    10    33    44    1
    11    33    36    1
    12    44    45    1
    13    39    40    1
    14    39    41   am
    15    39    42    2
    16    41    43    1
    17    28    25    1
    18    34    37    1
    19    35    38    1
    20    45    46    1
    21    15    16   ar
    22    15    20   ar
    23    15     6    1
    24    16    17   ar
    25    16    21    2
    26    17    18   ar
    27    17    23    1
    28    18    19   ar
    29    18    22    2
    30    19    20   ar
    31     6     7    1
    32     6    11    1
    33     7     8    1
    34     7     9    1
    35     8    13    1
    36     9    10    1
    37     9    12    1
    38    10    11    1
    39    10     5    1
    40    12    14    1
    41     5     4    1
    42     4     1    1
    43     1     2    2
    44     1     3    1
    45     1    24    1
    46    24    25    1
    47    25    26    2
    48    25    27    1
@<TRIPOS>MOLECULE
UD1
 46 48 0 0 0
SMALL
GASTEIGER

@<TRIPOS>ATOM
      1 P          22.8414   73.6978   -3.5731 P.3     1  UNL1        0.2189
      2 O          23.8700   74.5542   -4.2033 O.2     1  UNL1       -0.5170
      3 O          21.4824   74.5407   -3.3857 O.3     1  UNL1       -0.4371
      4 O          23.3659   73.2005   -2.1342 O.3     1  UNL1       -0.3112
      5 C          22.3024   73.4219   -1.2068 C.3     1  UNL1        0.1811
      6 C          22.6669   73.3522    2.3695 C.3     1  UNL1        0.2383
      7 C          21.2319   72.8266    2.1153 C.3     1  UNL1        0.1895
      8 O          20.8433   71.8931    3.1237 O.3     1  UNL1       -0.3779
      9 C          21.3808   72.1254    0.7400 C.3     1  UNL1        0.1713
     10 C          22.6445   72.7622    0.1300 C.3     1  UNL1        0.1764
     11 O          23.1166   73.7538    1.0580 O.3     1  UNL1       -0.3308
     12 O          21.5557   70.7174    0.9126 O.3     1  UNL1       -0.3794
     13 H          19.9451   71.6059    2.9085 H       1  UNL1        0.2106
     14 H          20.7596   70.3888    1.3512 H       1  UNL1        0.2105
     15 N          22.6468   74.4968    3.2811 N.ar    1  UNL1       -0.2551
     16 C          23.6802   74.7014    4.1164 C.ar    1  UNL1        0.3323
     17 N          23.6904   75.7481    4.9629 N.ar    1  UNL1       -0.2743
     18 C          22.6525   76.6082    4.9925 C.ar    1  UNL1        0.2626
     19 C          21.5554   76.4012    4.1228 C.ar    1  UNL1        0.0795
     20 C          21.5735   75.3463    3.2800 C.ar    1  UNL1        0.0869
     21 O          24.6237   73.9345    4.1015 O.2     1  UNL1       -0.2464
     22 O          22.6585   77.5522    5.7608 O.2     1  UNL1       -0.2670
     23 H          24.4462   75.8832    5.5551 H       1  UNL1        0.1734
     24 O          22.5574   72.4216   -4.5109 O.3     1  UNL1       -0.2703
     25 P          21.8608   72.9756   -5.8514 P.3     1  UNL1        0.2208
     26 O          22.7270   72.6828   -7.0146 O.2     1  UNL1       -0.5170
     27 O          21.6484   74.5668   -5.7285 O.3     1  UNL1       -0.4371
     28 O          20.4335   72.2590   -6.0515 O.3     1  UNL1       -0.2865
     29 C          19.5369   73.2532   -6.5505 C.3     1  UNL1        0.2611
     30 C          18.2097   73.1609   -5.7956 C.3     1  UNL1        0.1582
     31 C          17.6218   71.7581   -5.9850 C.3     1  UNL1        0.1625
     32 C          17.5404   71.4593   -7.4857 C.3     1  UNL1        0.1686
     33 C          18.9192   71.6770   -8.1127 C.3     1  UNL1        0.1760
     34 O          16.3143   71.7054   -5.4113 O.3     1  UNL1       -0.3801
     35 O          17.1334   70.1037   -7.6818 O.3     1  UNL1       -0.3794
     36 O          19.3168   73.0370   -7.9427 O.3     1  UNL1       -0.3263
     37 H          15.9832   70.8077   -5.5526 H       1  UNL1        0.2105
     38 H          17.0960   69.9584   -8.6378 H       1  UNL1        0.2105
     39 C          18.6322   72.3753   -3.5288 C.2     1  UNL1        0.2231
     40 C          18.8671   72.6308   -2.0619 C.3     1  UNL1        0.0946
     41 N          18.4384   73.4087   -4.3706 N.am    1  UNL1       -0.2994
     42 O          18.6171   71.2389   -3.9514 O.2     1  UNL1       -0.2751
     43 H          18.4502   74.3182   -4.0326 H       1  UNL1        0.1496
     44 C          18.8564   71.3498   -9.6060 C.3     1  UNL1        0.1693
     45 O          18.5282   72.5314  -10.3396 O.3     1  UNL1       -0.3794
     46 H          18.4985   72.2819  -11.2732 H       1  UNL1        0.2105
@<TRIPOS>BOND
     1    29    30    1
     2    29    28    1
     3    29    36    1
     4    30    31    1
     5    30    41    1
     6    31    32    1
     7    31    34    1
     8    32    33    1
     9    32    35    1
    10    33    44    1
    11    33    36    1
    12    44    45    1
    13    39    40    1
    14    39    41   am
    15    39    42    2
    16    41    43    1
    17    28    25    1
    18    34    37    1
    19    35    38    1
    20    45    46    1
    21    15    16   ar
    22    15    20   ar
    23    15     6    1
    24    16    17   ar
    25    16    21    2
    26    17    18   ar
    27    17    23    1
    28    18    19   ar
    29    18    22    2
    30    19    20   ar
    31     6     7    1
    32     6    11    1
    33     7     8    1
    34     7     9    1
    35     8    13    1
    36     9    10    1
    37     9    12    1
    38    10    11    1
    39    10     5    1
    40    12    14    1
    41     5     4    1
    42     4     1    1
    43     1     2    2
    44     1     3    1
    45     1    24    1
    46    24    25    1
    47    25    26    2
    48    25    27    1
@<TRIPOS>MOLECULE
UD1
 46 48 0 0 0
SMALL
GASTEIGER

@<TRIPOS>ATOM
      1 P          18.3661   72.3897   -3.7543 P.3     1  UNL1        0.2189
      2 O          17.2288   71.6446   -4.3374 O.2     1  UNL1       -0.5170
      3 O          19.7427   71.8589   -4.3990 O.3     1  UNL1       -0.4371
      4 O          18.3971   72.1597   -2.1609 O.3     1  UNL1       -0.3112
      5 C          19.7480   71.8519   -1.8134 C.3     1  UNL1        0.1811
      6 C          21.5764   73.8815    0.5243 C.3     1  UNL1        0.2383
      7 C          22.6700   73.1926   -0.3299 C.3     1  UNL1        0.1895
      8 O          23.8268   74.0219   -0.4448 O.3     1  UNL1       -0.3779
      9 C          21.9622   73.0370   -1.7011 C.3     1  UNL1        0.1713
     10 C          20.4621   73.1262   -1.3603 C.3     1  UNL1        0.1764
     11 O          20.3533   73.2668    0.0665 O.3     1  UNL1       -0.3308
     12 O          22.3449   74.0934   -2.5844 O.3     1  UNL1       -0.3794
     13 H          24.4663   73.5374   -0.9851 H       1  UNL1        0.2106
     14 H          23.3003   74.0195   -2.7107 H       1  UNL1        0.2105
     15 N          21.7858   73.6164    1.9481 N.ar    1  UNL1       -0.2551
     16 C          21.6065   72.3734    2.4279 C.ar    1  UNL1        0.3323
     17 N          21.7958   72.0999    3.7323 N.ar    1  UNL1       -0.2743
     18 C          22.1619   73.0776    4.5855 C.ar    1  UNL1        0.2626
     19 C          22.3483   74.3920    4.0949 C.ar    1  UNL1        0.0795
     20 C          22.1569   74.6375    2.7810 C.ar    1  UNL1        0.0869
     21 O          21.2764   71.4809    1.6709 O.2     1  UNL1       -0.2464
     22 O          22.3287   72.8324    5.7659 O.2     1  UNL1       -0.2670
     23 H          21.6666   71.1966    4.0602 H       1  UNL1        0.1734
     24 O          18.1962   73.9590   -4.0665 O.3     1  UNL1       -0.2703
     25 P          17.4908   74.0724   -5.5083 P.3     1  UNL1        0.2208
     26 O          17.5770   75.4682   -5.9910 O.2     1  UNL1       -0.5170
     27 O          15.9441   73.6425   -5.3851 O.3     1  UNL1       -0.4371
     28 O          18.2359   73.0975   -6.5498 O.3     1  UNL1       -0.2865
     29 C          18.7935   73.9286   -7.5694 C.3     1  UNL1        0.2611
     30 C          18.4036   73.3754   -8.9413 C.3     1  UNL1        0.1582
     31 C          18.9242   71.9393   -9.0690 C.3     1  UNL1        0.1625
     32 C          20.4264   71.9337   -8.7666 C.3     1  UNL1        0.1686
     33 C          20.6633   72.5930   -7.4063 C.3     1  UNL1        0.1760
     34 O          18.6980   71.4644  -10.3974 O.3     1  UNL1       -0.3801
     35 O          20.9027   70.5870   -8.7360 O.3     1  UNL1       -0.3794
     36 O          20.2136   73.9469   -7.4418 O.3     1  UNL1       -0.3263
     37 H          19.0393   70.5602  -10.4328 H       1  UNL1        0.2105
     38 H          21.8499   70.6296   -8.5422 H       1  UNL1        0.2105
     39 C          16.3070   74.5119   -9.4378 C.2     1  UNL1        0.2231
     40 C          14.8060   74.5189   -9.5759 C.3     1  UNL1        0.0946
     41 N          16.9455   73.3825   -9.0760 N.am    1  UNL1       -0.2994
     42 O          16.9402   75.5236   -9.6518 O.2     1  UNL1       -0.2751
     43 H          16.4390   72.5728   -8.9045 H       1  UNL1        0.1496
     44 C          22.1579   72.5634   -7.0800 C.3     1  UNL1        0.1693
     45 O          22.4993   73.7135   -6.3035 O.3     1  UNL1       -0.3794
     46 H          23.4468   73.6562   -6.1203 H       1  UNL1        0.2105
@<TRIPOS>BOND
     1    29    30    1
     2    29    28    1
     3    29    36    1
     4    30    31    1
     5    30    41    1
     6    31    32    1
     7    31    34    1
     8    32    33    1
     9    32    35    1
    10    33    44    1
    11    33    36    1
    12    44    45    1
    13    39    40    1
    14    39    41   am
    15    39    42    2
    16    41    43    1
    17    28    25    1
    18    34    37    1
    19    35    38    1
    20    45    46    1
    21    15    16   ar
    22    15    20   ar
    23    15     6    1
    24    16    17   ar
    25    16    21    2
    26    17    18   ar
    27    17    23    1
    28    18    19   ar
    29    18    22    2
    30    19    20   ar
    31     6     7    1
    32     6    11    1
    33     7     8    1
    34     7     9    1
    35     8    13    1
    36     9    10    1
    37     9    12    1
    38    10    11    1
    39    10     5    1
    40    12    14    1
    41     5     4    1
    42     4     1    1
    43     1     2    2
    44     1     3    1
    45     1    24    1
    46    24    25    1
    47    25    26    2
    48    25    27    1
