@<TRIPOS>MOLECULE
UDP-glaA
 43 45 0 0 0
SMALL
GASTEIGER

@<TRIPOS>ATOM
      1 P          22.9784   71.9338   -3.3961 P.3     1  UNL1        0.2189
      2 O          23.7405   72.9069   -4.4400 O.3     1  UNL1       -0.4371
      3 O          23.6397   70.6057   -3.1704 O.2     1  UNL1       -0.5170
      4 O          21.4608   71.8778   -3.9523 O.3     1  UNL1       -0.3112
      5 C          20.6371   70.7910   -3.5653 C.3     1  UNL1        0.1811
      6 O          18.8030   71.8871   -4.6648 O.3     1  UNL1       -0.3308
      7 O          17.0651   70.7292   -2.5129 O.3     1  UNL1       -0.3794
      8 O          16.6112   69.0500   -4.6129 O.3     1  UNL1       -0.3779
      9 C          18.2072   70.1619   -3.1544 C.3     1  UNL1        0.1713
     10 C          17.8546   69.7182   -4.5585 C.3     1  UNL1        0.1895
     11 C          19.2046   71.2830   -3.4155 C.3     1  UNL1        0.1764
     12 C          17.8422   71.0370   -5.3126 C.3     1  UNL1        0.2383
     13 H          17.3479   71.0336   -1.6338 H       1  UNL1        0.2105
     14 H          16.6665   68.2801   -4.0209 H       1  UNL1        0.2106
     15 O          16.0203   70.4700   -7.3946 O.2     1  UNL1       -0.2464
     16 O          19.3636   70.4673  -10.5665 O.2     1  UNL1       -0.2670
     17 N          18.2090   70.8835   -6.6915 N.ar    1  UNL1       -0.2551
     18 N          17.6864   70.4685   -8.9726 N.ar    1  UNL1       -0.2743
     19 C          17.2171   70.5986   -7.6589 C.ar    1  UNL1        0.3323
     20 C          19.5394   71.0150   -7.0736 C.ar    1  UNL1        0.0869
     21 C          19.9709   70.8886   -8.3304 C.ar    1  UNL1        0.0795
     22 C          18.9992   70.5902   -9.4011 C.ar    1  UNL1        0.2626
     23 H          16.9910   70.2631   -9.6848 H       1  UNL1        0.1734
     24 O          22.8465   72.8541   -2.0729 O.3     1  UNL1       -0.2703
     25 P          22.2517   74.3435   -1.8724 P.3     1  UNL1        0.2208
     26 O          20.7606   74.2338   -2.4895 O.3     1  UNL1       -0.4371
     27 O          23.0944   75.4299   -2.4767 O.2     1  UNL1       -0.5170
     28 O          22.0256   74.4827   -0.2807 O.3     1  UNL1       -0.2858
     29 O          21.1513   72.3847    0.3777 O.3     1  UNL1       -0.3226
     30 O          21.5731   74.3355    4.0240 O.3     1  UNL1       -0.3794
     31 O          20.5726   75.7640    1.6864 O.3     1  UNL1       -0.3775
     32 O          20.9618   71.7785    3.1768 O.3     1  UNL1       -0.3792
     33 C          21.8662   73.9626    2.6804 C.3     1  UNL1        0.1718
     34 C          20.7082   74.3484    1.7539 C.3     1  UNL1        0.1968
     35 C          22.0993   72.4503    2.6258 C.3     1  UNL1        0.1723
     36 C          20.9375   73.7996    0.3402 C.3     1  UNL1        0.2706
     37 C          22.2743   72.0101    1.1740 C.3     1  UNL1        0.1830
     38 H          22.3302   74.0707    4.5738 H       1  UNL1        0.2105
     39 H          19.8360   75.9598    1.0832 H       1  UNL1        0.2106
     40 H          20.2312   71.8331    2.5377 H       1  UNL1        0.2106
     41 O          21.3939   70.0345    0.2653 O.co2   1  UNL1       -0.5466
     42 O          23.2256   69.8337    1.6075 O.co2   1  UNL1       -0.5466
     43 C          22.3755   70.5221    1.0617 C.2     1  UNL1        0.0799
@<TRIPOS>UNITY_ATOM_ATTR
41 1
charge -1
@<TRIPOS>BOND
     1     1     4    1
     2     1    24    1
     3     1     2    1
     4     1     3    2
     5    25    28    1
     6    25    24    1
     7    25    26    1
     8    25    27    2
     9     6    11    1
    10     6    12    1
    11    29    36    1
    12    29    37    1
    13     7     9    1
    14     7    13    1
    15     8    10    1
    16     8    14    1
    17     4     5    1
    18    28    36    1
    19    30    33    1
    20    30    38    1
    21    31    34    1
    22    31    39    1
    23    32    35    1
    24    32    40    1
    25    41    43   ar
    26    15    19    2
    27    42    43   ar
    28    16    22    2
    29    17    12    1
    30    17    19   ar
    31    17    20   ar
    32    18    19   ar
    33    18    22   ar
    34    18    23    1
    35     9    10    1
    36     9    11    1
    37    10    12    1
    38    11     5    1
    39    33    34    1
    40    33    35    1
    41    34    36    1
    42    35    37    1
    43    37    43    1
    44    20    21   ar
    45    21    22   ar
@<TRIPOS>MOLECULE
UDP-glaA
 43 45 0 0 0
SMALL
GASTEIGER

@<TRIPOS>ATOM
      1 P          21.8071   73.6644   -5.7496 P.3     1  UNL1        0.2189
      2 O          21.8999   75.0630   -4.9418 O.3     1  UNL1       -0.4371
      3 O          22.7945   73.5136   -6.8696 O.2     1  UNL1       -0.5170
      4 O          20.2484   73.5584   -6.1677 O.3     1  UNL1       -0.3112
      5 C          19.7971   74.2944   -7.2919 C.3     1  UNL1        0.1811
      6 O          19.6119   71.9803   -7.9123 O.3     1  UNL1       -0.3308
      7 O          17.9538   72.9263  -10.2246 O.3     1  UNL1       -0.3794
      8 O          16.0695   72.0426   -8.4627 O.3     1  UNL1       -0.3779
      9 C          18.0172   73.4330   -8.8916 C.3     1  UNL1        0.1713
     10 C          17.3000   72.4988   -7.9400 C.3     1  UNL1        0.1895
     11 C          19.4602   73.3257   -8.4165 C.3     1  UNL1        0.1764
     12 C          18.3138   71.3799   -7.7719 C.3     1  UNL1        0.2383
     13 H          18.4583   73.5353  -10.7905 H       1  UNL1        0.2105
     14 H          15.5203   72.8248   -8.6438 H       1  UNL1        0.2106
     15 O          16.1141   69.8422   -6.8933 O.2     1  UNL1       -0.2464
     16 O          18.0898   69.0128   -2.8132 O.2     1  UNL1       -0.2670
     17 N          18.2270   70.7502   -6.4854 N.ar    1  UNL1       -0.2551
     18 N          17.0991   69.4306   -4.8619 N.ar    1  UNL1       -0.2743
     19 C          17.0778   70.0005   -6.1418 C.ar    1  UNL1        0.3323
     20 C          19.2734   70.8787   -5.5787 C.ar    1  UNL1        0.0869
     21 C          19.2788   70.3289   -4.3624 C.ar    1  UNL1        0.0795
     22 C          18.1162   69.5309   -3.9253 C.ar    1  UNL1        0.2626
     23 H          16.2830   68.8877   -4.5931 H       1  UNL1        0.1734
     24 O          21.9445   72.5590   -4.5773 O.3     1  UNL1       -0.2703
     25 P          23.1096   72.3116   -3.4845 P.3     1  UNL1        0.2208
     26 O          24.3432   73.1903   -4.0521 O.3     1  UNL1       -0.4371
     27 O          23.4358   70.8646   -3.2488 O.2     1  UNL1       -0.5170
     28 O          22.6130   73.1057   -2.1705 O.3     1  UNL1       -0.2858
     29 O          21.5835   71.4643   -0.8120 O.3     1  UNL1       -0.3226
     30 O          21.3695   74.8464    1.5952 O.3     1  UNL1       -0.3794
     31 O          20.8517   75.0312   -1.2690 O.3     1  UNL1       -0.3775
     32 O          20.8659   72.1457    1.8823 O.3     1  UNL1       -0.3792
     33 C          21.8971   73.9376    0.6330 C.3     1  UNL1        0.1718
     34 C          20.9395   73.8023   -0.5557 C.3     1  UNL1        0.1968
     35 C          22.1010   72.5741    1.2992 C.3     1  UNL1        0.1723
     36 C          21.4133   72.7010   -1.5124 C.3     1  UNL1        0.2706
     37 C          22.5310   71.5500    0.2512 C.3     1  UNL1        0.1830
     38 H          22.0056   74.8989    2.3288 H       1  UNL1        0.2105
     39 H          20.2440   74.8946   -2.0152 H       1  UNL1        0.2106
     40 H          20.2675   71.8673    1.1685 H       1  UNL1        0.2106
     41 O          21.5537   69.4265    0.4506 O.co2   1  UNL1       -0.5466
     42 O          23.5194   69.7723    1.5523 O.co2   1  UNL1       -0.5466
     43 C          22.6166   70.1747    0.8329 C.2     1  UNL1        0.0799
@<TRIPOS>UNITY_ATOM_ATTR
41 1
charge -1
@<TRIPOS>BOND
     1     1     4    1
     2     1    24    1
     3     1     2    1
     4     1     3    2
     5    25    28    1
     6    25    24    1
     7    25    26    1
     8    25    27    2
     9     6    11    1
    10     6    12    1
    11    29    36    1
    12    29    37    1
    13     7     9    1
    14     7    13    1
    15     8    10    1
    16     8    14    1
    17     4     5    1
    18    28    36    1
    19    30    33    1
    20    30    38    1
    21    31    34    1
    22    31    39    1
    23    32    35    1
    24    32    40    1
    25    41    43   ar
    26    15    19    2
    27    42    43   ar
    28    16    22    2
    29    17    12    1
    30    17    19   ar
    31    17    20   ar
    32    18    19   ar
    33    18    22   ar
    34    18    23    1
    35     9    10    1
    36     9    11    1
    37    10    12    1
    38    11     5    1
    39    33    34    1
    40    33    35    1
    41    34    36    1
    42    35    37    1
    43    37    43    1
    44    20    21   ar
    45    21    22   ar
@<TRIPOS>MOLECULE
UDP-glaA
 43 45 0 0 0
SMALL
GASTEIGER

@<TRIPOS>ATOM
      1 P          22.9833   71.6455   -2.7284 P.3     1  UNL1        0.2189
      2 O          23.7991   72.9598   -3.2023 O.3     1  UNL1       -0.4371
      3 O          23.5102   70.3463   -3.2637 O.2     1  UNL1       -0.5170
      4 O          21.4463   71.9864   -3.0981 O.3     1  UNL1       -0.3112
      5 C          20.5974   70.9279   -3.5083 C.3     1  UNL1        0.1811
      6 O          18.7372   71.9601   -4.6257 O.3     1  UNL1       -0.3308
      7 O          17.0209   70.7508   -2.4848 O.3     1  UNL1       -0.3794
      8 O          16.6399   69.0524   -4.5838 O.3     1  UNL1       -0.3779
      9 C          18.1863   70.2199   -3.1155 C.3     1  UNL1        0.1713
     10 C          17.8600   69.7614   -4.5212 C.3     1  UNL1        0.1895
     11 C          19.1482   71.3727   -3.3714 C.3     1  UNL1        0.1764
     12 C          17.8104   71.0772   -5.2789 C.3     1  UNL1        0.2383
     13 H          17.2863   71.0665   -1.6042 H       1  UNL1        0.2105
     14 H          16.7157   68.2862   -3.9893 H       1  UNL1        0.2106
     15 O          16.0390   70.3737   -7.3628 O.2     1  UNL1       -0.2464
     16 O          19.3923   70.5490  -10.5193 O.2     1  UNL1       -0.2670
     17 N          18.1933   70.9326   -6.6543 N.ar    1  UNL1       -0.2551
     18 N          17.7100   70.4609   -8.9331 N.ar    1  UNL1       -0.2743
     19 C          17.2266   70.5751   -7.6230 C.ar    1  UNL1        0.3323
     20 C          19.5147   71.1440   -7.0319 C.ar    1  UNL1        0.0869
     21 C          19.9599   71.0318   -8.2853 C.ar    1  UNL1        0.0795
     22 C          19.0147   70.6610   -9.3570 C.ar    1  UNL1        0.2626
     23 H          17.0328   70.2043   -9.6462 H       1  UNL1        0.1734
     24 O          23.0046   71.7677   -1.1160 O.3     1  UNL1       -0.2703
     25 P          22.4829   70.7555    0.0311 P.3     1  UNL1        0.2208
     26 O          23.6563   69.6449    0.1076 O.3     1  UNL1       -0.4371
     27 O          21.1129   70.1935   -0.2200 O.2     1  UNL1       -0.5170
     28 O          22.6197   71.5896    1.4056 O.3     1  UNL1       -0.2858
     29 O          21.6843   72.4365    3.4074 O.3     1  UNL1       -0.3226
     30 O          21.3731   75.7000    0.8516 O.3     1  UNL1       -0.3794
     31 O          20.7963   73.0068   -0.1074 O.3     1  UNL1       -0.3775
     32 O          20.9878   75.2177    3.5440 O.3     1  UNL1       -0.3792
     33 C          21.9206   74.5178    1.4286 C.3     1  UNL1        0.1718
     34 C          20.9481   73.3446    1.2673 C.3     1  UNL1        0.1968
     35 C          22.1932   74.7720    2.9137 C.3     1  UNL1        0.1723
     36 C          21.4500   72.1138    2.0327 C.3     1  UNL1        0.2706
     37 C          22.6465   73.4755    3.5815 C.3     1  UNL1        0.1830
     38 H          22.0196   76.4151    0.9788 H       1  UNL1        0.2105
     39 H          20.1814   72.2557   -0.1588 H       1  UNL1        0.2106
     40 H          20.3887   74.4577    3.6372 H       1  UNL1        0.2106
     41 O          23.4727   74.7873    5.3423 O.co2   1  UNL1       -0.5466
     42 O          22.3765   72.8686    5.9028 O.co2   1  UNL1       -0.5466
     43 C          22.7998   73.6458    5.0594 C.2     1  UNL1        0.0799
@<TRIPOS>UNITY_ATOM_ATTR
41 1
charge -1
@<TRIPOS>BOND
     1     1     4    1
     2     1    24    1
     3     1     2    1
     4     1     3    2
     5    25    28    1
     6    25    24    1
     7    25    26    1
     8    25    27    2
     9     6    11    1
    10     6    12    1
    11    29    36    1
    12    29    37    1
    13     7     9    1
    14     7    13    1
    15     8    10    1
    16     8    14    1
    17     4     5    1
    18    28    36    1
    19    30    33    1
    20    30    38    1
    21    31    34    1
    22    31    39    1
    23    32    35    1
    24    32    40    1
    25    41    43   ar
    26    15    19    2
    27    42    43   ar
    28    16    22    2
    29    17    12    1
    30    17    19   ar
    31    17    20   ar
    32    18    19   ar
    33    18    22   ar
    34    18    23    1
    35     9    10    1
    36     9    11    1
    37    10    12    1
    38    11     5    1
    39    33    34    1
    40    33    35    1
    41    34    36    1
    42    35    37    1
    43    37    43    1
    44    20    21   ar
    45    21    22   ar
@<TRIPOS>MOLECULE
UDP-glaA
 43 45 0 0 0
SMALL
GASTEIGER

@<TRIPOS>ATOM
      1 P          22.8240   71.7550   -2.2879 P.3     1  UNL1        0.2189
      2 O          23.4911   73.2223   -2.4272 O.3     1  UNL1       -0.4371
      3 O          23.3962   70.7103   -3.2009 O.2     1  UNL1       -0.5170
      4 O          21.2382   72.0316   -2.4430 O.3     1  UNL1       -0.3112
      5 C          20.5300   71.3573   -3.4692 C.3     1  UNL1        0.1811
      6 O          18.6092   72.1964   -4.6442 O.3     1  UNL1       -0.3308
      7 O          16.9676   70.9718   -2.4541 O.3     1  UNL1       -0.3794
      8 O          16.7268   69.1498   -4.4686 O.3     1  UNL1       -0.3779
      9 C          18.1732   70.4966   -3.0526 C.3     1  UNL1        0.1713
     10 C          17.8921   69.9477   -4.4355 C.3     1  UNL1        0.1895
     11 C          19.0515   71.7021   -3.3608 C.3     1  UNL1        0.1764
     12 C          17.7537   71.2179   -5.2573 C.3     1  UNL1        0.2383
     13 H          17.2025   71.3485   -1.5889 H       1  UNL1        0.2105
     14 H          16.8529   68.4211   -3.8367 H       1  UNL1        0.2106
     15 O          16.0347   70.3605   -7.3275 O.2     1  UNL1       -0.2464
     16 O          19.4122   70.5468  -10.4574 O.2     1  UNL1       -0.2670
     17 N          18.1570   71.0344   -6.6222 N.ar    1  UNL1       -0.2551
     18 N          17.7178   70.4533   -8.8846 N.ar    1  UNL1       -0.2743
     19 C          17.2160   70.5996   -7.5846 C.ar    1  UNL1        0.3323
     20 C          19.4728   71.2844   -6.9958 C.ar    1  UNL1        0.0869
     21 C          19.9357   71.1407   -8.2395 C.ar    1  UNL1        0.0795
     22 C          19.0178   70.6894   -9.3041 C.ar    1  UNL1        0.2626
     23 H          17.0592   70.1411   -9.5930 H       1  UNL1        0.1734
     24 O          22.9840   71.4324   -0.7114 O.3     1  UNL1       -0.2703
     25 P          22.0423   70.5941    0.3001 P.3     1  UNL1        0.2208
     26 O          23.1013   69.9188    1.3193 O.3     1  UNL1       -0.4371
     27 O          21.1256   69.6170   -0.3787 O.2     1  UNL1       -0.5170
     28 O          21.2870   71.7161    1.1802 O.3     1  UNL1       -0.2858
     29 O          21.7253   74.0414    1.1929 O.3     1  UNL1       -0.3226
     30 O          20.2078   73.4204    5.0127 O.3     1  UNL1       -0.3794
     31 O          22.0566   71.5039    3.8232 O.3     1  UNL1       -0.3775
     32 O          20.8888   75.5975    3.4550 O.3     1  UNL1       -0.3792
     33 C          20.3724   73.2428    3.6085 C.3     1  UNL1        0.1718
     34 C          21.8044   72.7996    3.2901 C.3     1  UNL1        0.1968
     35 C          20.0643   74.5661    2.9025 C.3     1  UNL1        0.1723
     36 C          22.0402   72.7721    1.7748 C.3     1  UNL1        0.2706
     37 C          20.3720   74.4365    1.4123 C.3     1  UNL1        0.1830
     38 H          19.2901   73.7024    5.1671 H       1  UNL1        0.2105
     39 H          22.9687   71.2628    3.5892 H       1  UNL1        0.2106
     40 H          21.7975   75.4724    3.1328 H       1  UNL1        0.2106
     41 O          19.1117   76.3983    1.1547 O.co2   1  UNL1       -0.5466
     42 O          20.9597   76.1714   -0.1607 O.co2   1  UNL1       -0.5466
     43 C          20.2090   75.7437    0.7041 C.2     1  UNL1        0.0799
@<TRIPOS>UNITY_ATOM_ATTR
41 1
charge -1
@<TRIPOS>BOND
     1     1     4    1
     2     1    24    1
     3     1     2    1
     4     1     3    2
     5    25    28    1
     6    25    24    1
     7    25    26    1
     8    25    27    2
     9     6    11    1
    10     6    12    1
    11    29    36    1
    12    29    37    1
    13     7     9    1
    14     7    13    1
    15     8    10    1
    16     8    14    1
    17     4     5    1
    18    28    36    1
    19    30    33    1
    20    30    38    1
    21    31    34    1
    22    31    39    1
    23    32    35    1
    24    32    40    1
    25    41    43   ar
    26    15    19    2
    27    42    43   ar
    28    16    22    2
    29    17    12    1
    30    17    19   ar
    31    17    20   ar
    32    18    19   ar
    33    18    22   ar
    34    18    23    1
    35     9    10    1
    36     9    11    1
    37    10    12    1
    38    11     5    1
    39    33    34    1
    40    33    35    1
    41    34    36    1
    42    35    37    1
    43    37    43    1
    44    20    21   ar
    45    21    22   ar
@<TRIPOS>MOLECULE
UDP-glaA
 43 45 0 0 0
SMALL
GASTEIGER

@<TRIPOS>ATOM
      1 P          22.9561   73.7933   -4.2580 P.3     1  UNL1        0.2189
      2 O          22.1723   75.0067   -3.5294 O.3     1  UNL1       -0.4371
      3 O          24.3644   73.5763   -3.7872 O.2     1  UNL1       -0.5170
      4 O          22.7827   74.1085   -5.8347 O.3     1  UNL1       -0.3112
      5 C          22.3646   73.0607   -6.6930 C.3     1  UNL1        0.1811
      6 O          21.0984   72.7400   -8.7100 O.3     1  UNL1       -0.3308
      7 O          21.4917   75.6718   -9.2012 O.3     1  UNL1       -0.3794
      8 O          18.9455   75.5669   -8.2309 O.3     1  UNL1       -0.3779
      9 C          21.2905   74.9817   -7.9679 C.3     1  UNL1        0.1713
     10 C          19.8447   74.5513   -7.8368 C.3     1  UNL1        0.1895
     11 C          22.0145   73.6445   -8.0544 C.3     1  UNL1        0.1764
     12 C          19.7923   73.3383   -8.7500 C.3     1  UNL1        0.2383
     13 H          22.4369   75.8928   -9.2588 H       1  UNL1        0.2105
     14 H          19.1173   76.3434   -7.6709 H       1  UNL1        0.2106
     15 O          19.0340   71.0677  -10.2484 O.2     1  UNL1       -0.2464
     16 O          16.0574   69.6970   -7.0082 O.2     1  UNL1       -0.2670
     17 N          18.8222   72.3713   -8.3219 N.ar    1  UNL1       -0.2551
     18 N          17.5519   70.3870   -8.6341 N.ar    1  UNL1       -0.2743
     19 C          18.5124   71.2671   -9.1498 C.ar    1  UNL1        0.3323
     20 C          18.1884   72.5223   -7.0935 C.ar    1  UNL1        0.0869
     21 C          17.2751   71.6742   -6.6157 C.ar    1  UNL1        0.0795
     22 C          16.8941   70.4953   -7.4187 C.ar    1  UNL1        0.2626
     23 H          17.3130   69.5861   -9.2126 H       1  UNL1        0.1734
     24 O          21.9677   72.5340   -4.0286 O.3     1  UNL1       -0.2703
     25 P          22.0469   71.2998   -2.9879 P.3     1  UNL1        0.2208
     26 O          23.5335   70.7087   -3.2257 O.3     1  UNL1       -0.4371
     27 O          20.9459   70.2904   -3.1446 O.2     1  UNL1       -0.5170
     28 O          22.1117   71.9951   -1.5331 O.3     1  UNL1       -0.2858
     29 O          21.3197   71.4729    0.6347 O.3     1  UNL1       -0.3226
     30 O          20.5068   75.5407    0.3670 O.3     1  UNL1       -0.3794
     31 O          20.0434   73.7839   -1.9144 O.3     1  UNL1       -0.3775
     32 O          20.4309   73.6060    2.3371 O.3     1  UNL1       -0.3792
     33 C          21.1977   74.3121    0.1580 C.3     1  UNL1        0.1718
     34 C          20.3060   73.3188   -0.5947 C.3     1  UNL1        0.1968
     35 C          21.5975   73.7314    1.5172 C.3     1  UNL1        0.1723
     36 C          20.9742   71.9405   -0.6733 C.3     1  UNL1        0.2706
     37 C          22.2127   72.3472    1.3230 C.3     1  UNL1        0.1830
     38 H          21.1066   76.1365    0.8475 H       1  UNL1        0.2105
     39 H          19.4854   73.1202   -2.3537 H       1  UNL1        0.2106
     40 H          19.9037   72.8568    2.0117 H       1  UNL1        0.2106
     41 O          23.1286   70.5020    2.4454 O.co2   1  UNL1       -0.5466
     42 O          22.2131   72.1483    3.7293 O.co2   1  UNL1       -0.5466
     43 C          22.4999   71.6872    2.6340 C.2     1  UNL1        0.0799
@<TRIPOS>UNITY_ATOM_ATTR
41 1
charge -1
@<TRIPOS>BOND
     1     1     4    1
     2     1    24    1
     3     1     2    1
     4     1     3    2
     5    25    28    1
     6    25    24    1
     7    25    26    1
     8    25    27    2
     9     6    11    1
    10     6    12    1
    11    29    36    1
    12    29    37    1
    13     7     9    1
    14     7    13    1
    15     8    10    1
    16     8    14    1
    17     4     5    1
    18    28    36    1
    19    30    33    1
    20    30    38    1
    21    31    34    1
    22    31    39    1
    23    32    35    1
    24    32    40    1
    25    41    43   ar
    26    15    19    2
    27    42    43   ar
    28    16    22    2
    29    17    12    1
    30    17    19   ar
    31    17    20   ar
    32    18    19   ar
    33    18    22   ar
    34    18    23    1
    35     9    10    1
    36     9    11    1
    37    10    12    1
    38    11     5    1
    39    33    34    1
    40    33    35    1
    41    34    36    1
    42    35    37    1
    43    37    43    1
    44    20    21   ar
    45    21    22   ar
@<TRIPOS>MOLECULE
UDP-glaA
 43 45 0 0 0
SMALL
GASTEIGER

@<TRIPOS>ATOM
      1 P          21.6778   70.3530   -1.0413 P.3     1  UNL1        0.2189
      2 O          23.1998   70.6407   -1.5084 O.3     1  UNL1       -0.4371
      3 O          21.5434   69.6139    0.2579 O.2     1  UNL1       -0.5170
      4 O          21.0032   69.6417   -2.3276 O.3     1  UNL1       -0.3112
      5 C          20.7164   70.4344   -3.4672 C.3     1  UNL1        0.1811
      6 O          18.9990   71.7321   -4.5351 O.3     1  UNL1       -0.3308
      7 O          17.1556   70.6980   -2.4081 O.3     1  UNL1       -0.3794
      8 O          16.5389   69.1238   -4.5475 O.3     1  UNL1       -0.3779
      9 C          18.2364   70.0372   -3.0660 C.3     1  UNL1        0.1713
     10 C          17.8419   69.6651   -4.4797 C.3     1  UNL1        0.1895
     11 C          19.3392   71.0609   -3.3019 C.3     1  UNL1        0.1764
     12 C          17.9593   70.9968   -5.2012 C.3     1  UNL1        0.2383
     13 H          17.4670   70.9514   -1.5224 H       1  UNL1        0.2105
     14 H          16.5182   68.3379   -3.9747 H       1  UNL1        0.2106
     15 O          16.1071   70.4654   -7.2658 O.2     1  UNL1       -0.2464
     16 O          19.4168   70.4203  -10.4724 O.2     1  UNL1       -0.2670
     17 N          18.3092   70.8421   -6.5843 N.ar    1  UNL1       -0.2551
     18 N          17.7565   70.4428   -8.8611 N.ar    1  UNL1       -0.2743
     19 C          17.3030   70.5760   -7.5422 C.ar    1  UNL1        0.3323
     20 C          19.6375   70.9538   -6.9799 C.ar    1  UNL1        0.0869
     21 C          20.0539   70.8247   -8.2416 C.ar    1  UNL1        0.0795
     22 C          19.0665   70.5452   -9.3030 C.ar    1  UNL1        0.2626
     23 H          17.0506   70.2506   -9.5667 H       1  UNL1        0.1734
     24 O          21.0114   71.8264   -1.0500 O.3     1  UNL1       -0.2703
     25 P          21.6290   73.2717   -0.6726 P.3     1  UNL1        0.2208
     26 O          20.4843   74.3039   -1.1628 O.3     1  UNL1       -0.4371
     27 O          22.9888   73.5315   -1.2550 O.2     1  UNL1       -0.5170
     28 O          21.5712   73.3329    0.9389 O.3     1  UNL1       -0.2858
     29 O          22.8347   74.9714    2.0870 O.3     1  UNL1       -0.3226
     30 O          21.9598   72.2646    5.1179 O.3     1  UNL1       -0.3794
     31 O          22.6997   71.3230    2.4586 O.3     1  UNL1       -0.3775
     32 O          23.0869   74.7801    4.9397 O.3     1  UNL1       -0.3792
     33 C          21.7735   73.0240    3.9268 C.3     1  UNL1        0.1718
     34 C          22.8488   72.6703    2.8938 C.3     1  UNL1        0.1968
     35 C          21.8490   74.5137    4.2723 C.3     1  UNL1        0.1723
     36 C          22.7617   73.6015    1.6783 C.3     1  UNL1        0.2706
     37 C          21.7940   75.3414    2.9901 C.3     1  UNL1        0.1830
     38 H          21.2604   72.5222    5.7425 H       1  UNL1        0.2105
     39 H          23.3939   71.1485    1.8010 H       1  UNL1        0.2106
     40 H          23.8041   74.7495    4.2841 H       1  UNL1        0.2106
     41 O          23.3047   77.1275    3.1670 O.co2   1  UNL1       -0.5466
     42 O          21.1047   77.5870    3.5489 O.co2   1  UNL1       -0.5466
     43 C          21.9948   76.7970    3.2694 C.2     1  UNL1        0.0799
@<TRIPOS>UNITY_ATOM_ATTR
41 1
charge -1
@<TRIPOS>BOND
     1     1     4    1
     2     1    24    1
     3     1     2    1
     4     1     3    2
     5    25    28    1
     6    25    24    1
     7    25    26    1
     8    25    27    2
     9     6    11    1
    10     6    12    1
    11    29    36    1
    12    29    37    1
    13     7     9    1
    14     7    13    1
    15     8    10    1
    16     8    14    1
    17     4     5    1
    18    28    36    1
    19    30    33    1
    20    30    38    1
    21    31    34    1
    22    31    39    1
    23    32    35    1
    24    32    40    1
    25    41    43   ar
    26    15    19    2
    27    42    43   ar
    28    16    22    2
    29    17    12    1
    30    17    19   ar
    31    17    20   ar
    32    18    19   ar
    33    18    22   ar
    34    18    23    1
    35     9    10    1
    36     9    11    1
    37    10    12    1
    38    11     5    1
    39    33    34    1
    40    33    35    1
    41    34    36    1
    42    35    37    1
    43    37    43    1
    44    20    21   ar
    45    21    22   ar
@<TRIPOS>MOLECULE
UDP-glaA
 43 45 0 0 0
SMALL
GASTEIGER

@<TRIPOS>ATOM
      1 P          22.8272   71.7691   -3.1334 P.3     1  UNL1        0.2189
      2 O          23.7765   73.0786   -3.1718 O.3     1  UNL1       -0.4371
      3 O          23.5401   70.4643   -3.3368 O.2     1  UNL1       -0.5170
      4 O          21.6574   72.1045   -4.1986 O.3     1  UNL1       -0.3112
      5 C          21.6124   73.4012   -4.7694 C.3     1  UNL1        0.1811
      6 O          21.5328   72.1688   -6.8308 O.3     1  UNL1       -0.3308
      7 O          22.6178   74.6419   -8.1339 O.3     1  UNL1       -0.3794
      8 O          19.9615   74.7672   -8.7374 O.3     1  UNL1       -0.3779
      9 C          21.6955   74.5220   -7.0510 C.3     1  UNL1        0.1713
     10 C          20.3400   74.0812   -7.5620 C.3     1  UNL1        0.1895
     11 C          22.1193   73.3302   -6.2028 C.3     1  UNL1        0.1764
     12 C          20.5589   72.5964   -7.7971 C.3     1  UNL1        0.2383
     13 H          23.4791   74.8873   -7.7552 H       1  UNL1        0.2105
     14 H          19.9502   75.7177   -8.5309 H       1  UNL1        0.2106
     15 O          18.7546   71.9566   -9.8733 O.2     1  UNL1       -0.2464
     16 O          15.9820   69.6533   -7.0017 O.2     1  UNL1       -0.2670
     17 N          19.3582   71.8306   -7.6205 N.ar    1  UNL1       -0.2551
     18 N          17.3748   70.8105   -8.4419 N.ar    1  UNL1       -0.2743
     19 C          18.5197   71.5656   -8.7285 C.ar    1  UNL1        0.3323
     20 C          19.0213   71.3506   -6.3597 C.ar    1  UNL1        0.0869
     21 C          17.9264   70.6316   -6.1028 C.ar    1  UNL1        0.0795
     22 C          16.9975   70.3116   -7.2048 C.ar    1  UNL1        0.2626
     23 H          16.7570   70.6083   -9.2233 H       1  UNL1        0.1734
     24 O          22.0732   71.9098   -1.7098 O.3     1  UNL1       -0.2703
     25 P          21.5839   70.7882   -0.6537 P.3     1  UNL1        0.2208
     26 O          22.9488   69.9998   -0.2908 O.3     1  UNL1       -0.4371
     27 O          20.4755   69.9092   -1.1580 O.2     1  UNL1       -0.5170
     28 O          21.2225   71.6158    0.6836 O.3     1  UNL1       -0.2858
     29 O          21.5257   73.9226    1.1149 O.3     1  UNL1       -0.3226
     30 O          21.9055   72.2697    4.9101 O.3     1  UNL1       -0.3794
     31 O          23.1019   70.9579    2.5962 O.3     1  UNL1       -0.3775
     32 O          21.7285   74.8090    3.8374 O.3     1  UNL1       -0.3792
     33 C          21.4310   72.4261    3.5756 C.3     1  UNL1        0.1718
     34 C          22.5855   72.2845    2.5779 C.3     1  UNL1        0.1968
     35 C          20.7863   73.8081    3.4381 C.3     1  UNL1        0.1723
     36 C          22.1189   72.6205    1.1560 C.3     1  UNL1        0.2706
     37 C          20.3992   74.0511    1.9810 C.3     1  UNL1        0.1830
     38 H          21.1435   72.3692    5.5059 H       1  UNL1        0.2105
     39 H          23.8216   70.9142    1.9443 H       1  UNL1        0.2106
     40 H          22.4009   74.8956    3.1407 H       1  UNL1        0.2106
     41 O          20.8013   76.2008    1.1321 O.co2   1  UNL1       -0.5466
     42 O          18.7857   75.8407    2.1343 O.co2   1  UNL1       -0.5466
     43 C          19.8837   75.4400    1.7761 C.2     1  UNL1        0.0799
@<TRIPOS>UNITY_ATOM_ATTR
41 1
charge -1
@<TRIPOS>BOND
     1     1     4    1
     2     1    24    1
     3     1     2    1
     4     1     3    2
     5    25    28    1
     6    25    24    1
     7    25    26    1
     8    25    27    2
     9     6    11    1
    10     6    12    1
    11    29    36    1
    12    29    37    1
    13     7     9    1
    14     7    13    1
    15     8    10    1
    16     8    14    1
    17     4     5    1
    18    28    36    1
    19    30    33    1
    20    30    38    1
    21    31    34    1
    22    31    39    1
    23    32    35    1
    24    32    40    1
    25    41    43   ar
    26    15    19    2
    27    42    43   ar
    28    16    22    2
    29    17    12    1
    30    17    19   ar
    31    17    20   ar
    32    18    19   ar
    33    18    22   ar
    34    18    23    1
    35     9    10    1
    36     9    11    1
    37    10    12    1
    38    11     5    1
    39    33    34    1
    40    33    35    1
    41    34    36    1
    42    35    37    1
    43    37    43    1
    44    20    21   ar
    45    21    22   ar
@<TRIPOS>MOLECULE
UDP-glaA
 43 45 0 0 0
SMALL
GASTEIGER

@<TRIPOS>ATOM
      1 P          21.6095   70.3485   -0.9850 P.3     1  UNL1        0.2189
      2 O          23.0090   70.8437   -1.6282 O.3     1  UNL1       -0.4371
      3 O          21.7447   69.4446    0.2053 O.2     1  UNL1       -0.5170
      4 O          20.7970   69.7377   -2.2428 O.3     1  UNL1       -0.3112
      5 C          20.5695   70.5670   -3.3696 C.3     1  UNL1        0.1811
      6 O          18.8759   71.8240   -4.5212 O.3     1  UNL1       -0.3308
      7 O          16.9634   70.7770   -2.4627 O.3     1  UNL1       -0.3794
      8 O          16.4643   69.1722   -4.6101 O.3     1  UNL1       -0.3779
      9 C          18.0821   70.1294   -3.0683 C.3     1  UNL1        0.1713
     10 C          17.7538   69.7372   -4.4934 C.3     1  UNL1        0.1895
     11 C          19.1758   71.1704   -3.2682 C.3     1  UNL1        0.1764
     12 C          17.8780   71.0641   -5.2228 C.3     1  UNL1        0.2383
     13 H          17.2329   71.0441   -1.5674 H       1  UNL1        0.2105
     14 H          16.4334   68.3914   -4.0308 H       1  UNL1        0.2106
     15 O          16.1213   70.4976   -7.3601 O.2     1  UNL1       -0.2464
     16 O          19.5651   70.4638  -10.4224 O.2     1  UNL1       -0.2670
     17 N          18.2883   70.9027   -6.5884 N.ar    1  UNL1       -0.2551
     18 N          17.8374   70.4806   -8.8835 N.ar    1  UNL1       -0.2743
     19 C          17.3266   70.6188   -7.5861 C.ar    1  UNL1        0.3323
     20 C          19.6310   71.0257   -6.9280 C.ar    1  UNL1        0.0869
     21 C          20.1022   70.8916   -8.1697 C.ar    1  UNL1        0.0795
     22 C          19.1639   70.5936   -9.2699 C.ar    1  UNL1        0.2626
     23 H          17.1642   70.2757   -9.6170 H       1  UNL1        0.1734
     24 O          20.8342   71.7371   -0.6917 O.3     1  UNL1       -0.2703
     25 P          21.3523   73.2678   -0.7230 P.3     1  UNL1        0.2208
     26 O          22.9622   73.1155   -0.6871 O.3     1  UNL1       -0.4371
     27 O          20.7869   74.1319    0.3676 O.2     1  UNL1       -0.5170
     28 O          21.0237   73.7803   -2.2174 O.3     1  UNL1       -0.2858
     29 O          22.4135   74.6762   -3.9101 O.3     1  UNL1       -0.3226
     30 O          18.8741   76.7788   -4.4856 O.3     1  UNL1       -0.3794
     31 O          19.8612   76.2483   -1.7930 O.3     1  UNL1       -0.3775
     32 O          21.2781   76.4971   -5.8164 O.3     1  UNL1       -0.3792
     33 C          19.7255   75.6856   -4.1534 C.3     1  UNL1        0.1718
     34 C          20.6321   76.0535   -2.9740 C.3     1  UNL1        0.1968
     35 C          20.5753   75.3303   -5.3765 C.3     1  UNL1        0.1723
     36 C          21.6672   74.9506   -2.7199 C.3     1  UNL1        0.2706
     37 C          21.5934   74.2563   -4.9996 C.3     1  UNL1        0.1830
     38 H          18.3214   76.5026   -5.2365 H       1  UNL1        0.2105
     39 H          20.4769   76.4691   -1.0739 H       1  UNL1        0.2106
     40 H          21.9991   76.6780   -5.1898 H       1  UNL1        0.2106
     41 O          23.2421   75.0777   -6.4525 O.co2   1  UNL1       -0.5466
     42 O          22.6483   72.8893   -6.6872 O.co2   1  UNL1       -0.5466
     43 C          22.5311   73.9707   -6.1292 C.2     1  UNL1        0.0799
@<TRIPOS>UNITY_ATOM_ATTR
41 1
charge -1
@<TRIPOS>BOND
     1     1     4    1
     2     1    24    1
     3     1     2    1
     4     1     3    2
     5    25    28    1
     6    25    24    1
     7    25    26    1
     8    25    27    2
     9     6    11    1
    10     6    12    1
    11    29    36    1
    12    29    37    1
    13     7     9    1
    14     7    13    1
    15     8    10    1
    16     8    14    1
    17     4     5    1
    18    28    36    1
    19    30    33    1
    20    30    38    1
    21    31    34    1
    22    31    39    1
    23    32    35    1
    24    32    40    1
    25    41    43   ar
    26    15    19    2
    27    42    43   ar
    28    16    22    2
    29    17    12    1
    30    17    19   ar
    31    17    20   ar
    32    18    19   ar
    33    18    22   ar
    34    18    23    1
    35     9    10    1
    36     9    11    1
    37    10    12    1
    38    11     5    1
    39    33    34    1
    40    33    35    1
    41    34    36    1
    42    35    37    1
    43    37    43    1
    44    20    21   ar
    45    21    22   ar
@<TRIPOS>MOLECULE
UDP-glaA
 43 45 0 0 0
SMALL
GASTEIGER

@<TRIPOS>ATOM
      1 P          23.2712   73.3162   -3.9231 P.3     1  UNL1        0.2189
      2 O          22.2292   74.2937   -3.1641 O.3     1  UNL1       -0.4371
      3 O          24.7160   73.6948   -3.7764 O.2     1  UNL1       -0.5170
      4 O          22.7119   73.2522   -5.4392 O.3     1  UNL1       -0.3112
      5 C          21.6115   74.0737   -5.7906 C.3     1  UNL1        0.1811
      6 O          21.0521   73.1404   -7.9331 O.3     1  UNL1       -0.3308
      7 O          21.2512   75.9377   -8.9947 O.3     1  UNL1       -0.3794
      8 O          18.5586   75.5855   -8.7454 O.3     1  UNL1       -0.3779
      9 C          20.7659   75.4835   -7.7314 C.3     1  UNL1        0.1713
     10 C          19.4037   74.8421   -7.8918 C.3     1  UNL1        0.1895
     11 C          21.6244   74.3035   -7.2951 C.3     1  UNL1        0.1764
     12 C          19.7610   73.4810   -8.4644 C.3     1  UNL1        0.2383
     13 H          22.1399   76.3044   -8.8489 H       1  UNL1        0.2105
     14 H          18.4683   76.4761   -8.3648 H       1  UNL1        0.2106
     15 O          19.0759   71.2689  -10.0807 O.2     1  UNL1       -0.2464
     16 O          16.1322   69.6450   -6.9286 O.2     1  UNL1       -0.2670
     17 N          18.8192   72.4648   -8.0909 N.ar    1  UNL1       -0.2551
     18 N          17.6101   70.4620   -8.5103 N.ar    1  UNL1       -0.2743
     19 C          18.5452   71.3958   -8.9758 C.ar    1  UNL1        0.3323
     20 C          18.1775   72.5333   -6.8593 C.ar    1  UNL1        0.0869
     21 C          17.2887   71.6348   -6.4297 C.ar    1  UNL1        0.0795
     22 C          16.9458   70.4880   -7.2938 C.ar    1  UNL1        0.2626
     23 H          17.3972   69.6851   -9.1301 H       1  UNL1        0.1734
     24 O          22.8941   71.8577   -3.3350 O.3     1  UNL1       -0.2703
     25 P          21.4940   71.2658   -2.7855 P.3     1  UNL1        0.2208
     26 O          21.7751   69.6758   -2.6905 O.3     1  UNL1       -0.4371
     27 O          20.2998   71.6356   -3.6179 O.2     1  UNL1       -0.5170
     28 O          21.4156   71.7590   -1.2511 O.3     1  UNL1       -0.2858
     29 O          23.1922   73.0103   -0.3144 O.3     1  UNL1       -0.3226
     30 O          21.1916   71.6680    3.0731 O.3     1  UNL1       -0.3794
     31 O          21.5811   69.9018    0.7851 O.3     1  UNL1       -0.3775
     32 O          23.2448   73.4324    2.5242 O.3     1  UNL1       -0.3792
     33 C          21.3703   72.1282    1.7365 C.3     1  UNL1        0.1718
     34 C          22.2466   71.1499    0.9470 C.3     1  UNL1        0.1968
     35 C          22.0292   73.5099    1.7724 C.3     1  UNL1        0.1723
     36 C          22.5862   71.7192   -0.4361 C.3     1  UNL1        0.2706
     37 C          22.3587   73.9585    0.3503 C.3     1  UNL1        0.1830
     38 H          20.6345   72.3175    3.5350 H       1  UNL1        0.2105
     39 H          22.1683   69.3204    0.2732 H       1  UNL1        0.2106
     40 H          23.9111   72.9708    1.9874 H       1  UNL1        0.2106
     41 O          22.3512   76.2552   -0.1279 O.co2   1  UNL1       -0.5466
     42 O          24.2775   75.3772    0.7180 O.co2   1  UNL1       -0.5466
     43 C          23.1207   75.2455    0.3452 C.2     1  UNL1        0.0799
@<TRIPOS>UNITY_ATOM_ATTR
41 1
charge -1
@<TRIPOS>BOND
     1     1     4    1
     2     1    24    1
     3     1     2    1
     4     1     3    2
     5    25    28    1
     6    25    24    1
     7    25    26    1
     8    25    27    2
     9     6    11    1
    10     6    12    1
    11    29    36    1
    12    29    37    1
    13     7     9    1
    14     7    13    1
    15     8    10    1
    16     8    14    1
    17     4     5    1
    18    28    36    1
    19    30    33    1
    20    30    38    1
    21    31    34    1
    22    31    39    1
    23    32    35    1
    24    32    40    1
    25    41    43   ar
    26    15    19    2
    27    42    43   ar
    28    16    22    2
    29    17    12    1
    30    17    19   ar
    31    17    20   ar
    32    18    19   ar
    33    18    22   ar
    34    18    23    1
    35     9    10    1
    36     9    11    1
    37    10    12    1
    38    11     5    1
    39    33    34    1
    40    33    35    1
    41    34    36    1
    42    35    37    1
    43    37    43    1
    44    20    21   ar
    45    21    22   ar
@<TRIPOS>MOLECULE
UDP-glaA
 43 45 0 0 0
SMALL
GASTEIGER

@<TRIPOS>ATOM
      1 P          22.3914   72.9928   -4.6100 P.3     1  UNL1        0.2189
      2 O          22.6940   73.6172   -6.0715 O.3     1  UNL1       -0.4371
      3 O          23.5255   72.2178   -4.0057 O.2     1  UNL1       -0.5170
      4 O          21.0110   72.1750   -4.8138 O.3     1  UNL1       -0.3112
      5 C          20.4749   71.4653   -3.7102 C.3     1  UNL1        0.1811
      6 O          18.5226   72.1783   -4.9163 O.3     1  UNL1       -0.3308
      7 O          16.9297   70.9603   -2.6868 O.3     1  UNL1       -0.3794
      8 O          16.7742   69.0604   -4.6367 O.3     1  UNL1       -0.3779
      9 C          18.1566   70.5175   -3.2669 C.3     1  UNL1        0.1713
     10 C          17.9035   69.9090   -4.6300 C.3     1  UNL1        0.1895
     11 C          18.9824   71.7488   -3.6158 C.3     1  UNL1        0.1764
     12 C          17.7123   71.1426   -5.4959 C.3     1  UNL1        0.2383
     13 H          17.1455   71.3768   -1.8350 H       1  UNL1        0.2105
     14 H          16.9302   68.3604   -3.9797 H       1  UNL1        0.2106
     15 O          15.9552   71.0455   -7.7047 O.2     1  UNL1       -0.2464
     16 O          19.4165   70.3164  -10.6588 O.2     1  UNL1       -0.2670
     17 N          18.1270   70.9294   -6.8531 N.ar    1  UNL1       -0.2551
     18 N          17.6799   70.6819   -9.1742 N.ar    1  UNL1       -0.2743
     19 C          17.1646   70.8971   -7.8892 C.ar    1  UNL1        0.3323
     20 C          19.4749   70.7548   -7.1466 C.ar    1  UNL1        0.0869
     21 C          19.9504   70.5510   -8.3771 C.ar    1  UNL1        0.0795
     22 C          19.0115   70.5025   -9.5154 C.ar    1  UNL1        0.2626
     23 H          17.0062   70.6543   -9.9347 H       1  UNL1        0.1734
     24 O          21.9258   74.2833   -3.7539 O.3     1  UNL1       -0.2703
     25 P          22.2751   74.7347   -2.2417 P.3     1  UNL1        0.2208
     26 O          21.0658   75.7411   -1.8662 O.3     1  UNL1       -0.4371
     27 O          23.6464   75.3244   -2.0761 O.2     1  UNL1       -0.5170
     28 O          22.0031   73.4184   -1.3489 O.3     1  UNL1       -0.2858
     29 O          22.9255   73.5707    0.8249 O.3     1  UNL1       -0.3226
     30 O          21.6666   69.6114    0.6884 O.3     1  UNL1       -0.3794
     31 O          22.9485   70.8392   -1.6257 O.3     1  UNL1       -0.3775
     32 O          22.6498   71.3379    2.6074 O.3     1  UNL1       -0.3792
     33 C          21.6605   71.0123    0.4280 C.3     1  UNL1        0.1718
     34 C          22.9300   71.4212   -0.3266 C.3     1  UNL1        0.1968
     35 C          21.5778   71.7633    1.7597 C.3     1  UNL1        0.1723
     36 C          23.0150   72.9467   -0.4602 C.3     1  UNL1        0.2706
     37 C          21.7132   73.2641    1.5118 C.3     1  UNL1        0.1830
     38 H          20.8480   69.3987    1.1683 H       1  UNL1        0.2105
     39 H          23.7631   71.1330   -2.0673 H       1  UNL1        0.2106
     40 H          23.4777   71.7256    2.2765 H       1  UNL1        0.2106
     41 O          23.0241   74.0213    3.3040 O.co2   1  UNL1       -0.5466
     42 O          20.8159   74.5873    3.3212 O.co2   1  UNL1       -0.5466
     43 C          21.7680   74.0281    2.7965 C.2     1  UNL1        0.0799
@<TRIPOS>UNITY_ATOM_ATTR
41 1
charge -1
@<TRIPOS>BOND
     1     1     4    1
     2     1    24    1
     3     1     2    1
     4     1     3    2
     5    25    28    1
     6    25    24    1
     7    25    26    1
     8    25    27    2
     9     6    11    1
    10     6    12    1
    11    29    36    1
    12    29    37    1
    13     7     9    1
    14     7    13    1
    15     8    10    1
    16     8    14    1
    17     4     5    1
    18    28    36    1
    19    30    33    1
    20    30    38    1
    21    31    34    1
    22    31    39    1
    23    32    35    1
    24    32    40    1
    25    41    43   ar
    26    15    19    2
    27    42    43   ar
    28    16    22    2
    29    17    12    1
    30    17    19   ar
    31    17    20   ar
    32    18    19   ar
    33    18    22   ar
    34    18    23    1
    35     9    10    1
    36     9    11    1
    37    10    12    1
    38    11     5    1
    39    33    34    1
    40    33    35    1
    41    34    36    1
    42    35    37    1
    43    37    43    1
    44    20    21   ar
    45    21    22   ar
@<TRIPOS>MOLECULE
UDP-glaA
 43 45 0 0 0
SMALL
GASTEIGER

@<TRIPOS>ATOM
      1 P          22.3493   73.3086   -5.2367 P.3     1  UNL1        0.2189
      2 O          22.7861   74.7817   -5.7434 O.3     1  UNL1       -0.4371
      3 O          23.4274   72.5347   -4.5362 O.2     1  UNL1       -0.5170
      4 O          21.7277   72.6109   -6.5567 O.3     1  UNL1       -0.3112
      5 C          20.8716   73.3760   -7.3880 C.3     1  UNL1        0.1811
      6 O          20.0488   71.1535   -7.7855 O.3     1  UNL1       -0.3308
      7 O          18.5028   72.3354  -10.0668 O.3     1  UNL1       -0.3794
      8 O          16.6076   72.1035   -8.1199 O.3     1  UNL1       -0.3779
      9 C          18.8042   72.9006   -8.7911 C.3     1  UNL1        0.1713
     10 C          17.9529   72.2568   -7.7171 C.3     1  UNL1        0.1895
     11 C          20.2057   72.4525   -8.3981 C.3     1  UNL1        0.1764
     12 C          18.6564   70.9260   -7.5120 C.3     1  UNL1        0.2383
     13 H          19.0978   72.7492  -10.7150 H       1  UNL1        0.2105
     14 H          16.2643   72.9875   -8.3362 H       1  UNL1        0.2106
     15 O          16.3350   69.6726   -6.5042 O.2     1  UNL1       -0.2464
     16 O          18.2382   69.0784   -2.3493 O.2     1  UNL1       -0.2670
     17 N          18.5180   70.4336   -6.1712 N.ar    1  UNL1       -0.2551
     18 N          17.2841   69.3780   -4.4358 N.ar    1  UNL1       -0.2743
     19 C          17.3097   69.8208   -5.7648 C.ar    1  UNL1        0.3323
     20 C          19.5726   70.5604   -5.2740 C.ar    1  UNL1        0.0869
     21 C          19.5329   70.1327   -4.0101 C.ar    1  UNL1        0.0795
     22 C          18.3072   69.4821   -3.5061 C.ar    1  UNL1        0.2626
     23 H          16.4251   68.9347   -4.1214 H       1  UNL1        0.1734
     24 O          21.0412   73.6089   -4.3346 O.3     1  UNL1       -0.2703
     25 P          20.8999   74.0571   -2.7881 P.3     1  UNL1        0.2208
     26 O          19.3097   74.2968   -2.6150 O.3     1  UNL1       -0.4371
     27 O          21.7495   75.2360   -2.4083 O.2     1  UNL1       -0.5170
     28 O          21.2050   72.7160   -1.9441 O.3     1  UNL1       -0.2858
     29 O          22.1528   73.2194    0.1649 O.3     1  UNL1       -0.3226
     30 O          22.3658   69.0689    0.0827 O.3     1  UNL1       -0.3794
     31 O          22.9796   70.6315   -2.3022 O.3     1  UNL1       -0.3775
     32 O          22.7985   71.0624    1.9450 O.3     1  UNL1       -0.3792
     33 C          21.8489   70.3732   -0.1664 C.3     1  UNL1        0.1718
     34 C          22.8410   71.1909   -1.0004 C.3     1  UNL1        0.1968
     35 C          21.5928   71.0686    1.1735 C.3     1  UNL1        0.1723
     36 C          22.3734   72.6460   -1.1280 C.3     1  UNL1        0.2706
     37 C          21.1737   72.5165    0.9283 C.3     1  UNL1        0.1830
     38 H          21.7077   68.5891    0.6141 H       1  UNL1        0.2105
     39 H          23.6078   71.1863   -2.7946 H       1  UNL1        0.2106
     40 H          23.4131   71.7116    1.5629 H       1  UNL1        0.2106
     41 O          20.5148   74.5016    1.9907 O.co2   1  UNL1       -0.5466
     42 O          21.3513   72.8444    3.3138 O.co2   1  UNL1       -0.5466
     43 C          21.0383   73.2718    2.2121 C.2     1  UNL1        0.0799
@<TRIPOS>UNITY_ATOM_ATTR
41 1
charge -1
@<TRIPOS>BOND
     1     1     4    1
     2     1    24    1
     3     1     2    1
     4     1     3    2
     5    25    28    1
     6    25    24    1
     7    25    26    1
     8    25    27    2
     9     6    11    1
    10     6    12    1
    11    29    36    1
    12    29    37    1
    13     7     9    1
    14     7    13    1
    15     8    10    1
    16     8    14    1
    17     4     5    1
    18    28    36    1
    19    30    33    1
    20    30    38    1
    21    31    34    1
    22    31    39    1
    23    32    35    1
    24    32    40    1
    25    41    43   ar
    26    15    19    2
    27    42    43   ar
    28    16    22    2
    29    17    12    1
    30    17    19   ar
    31    17    20   ar
    32    18    19   ar
    33    18    22   ar
    34    18    23    1
    35     9    10    1
    36     9    11    1
    37    10    12    1
    38    11     5    1
    39    33    34    1
    40    33    35    1
    41    34    36    1
    42    35    37    1
    43    37    43    1
    44    20    21   ar
    45    21    22   ar
@<TRIPOS>MOLECULE
UDP-glaA
 43 45 0 0 0
SMALL
GASTEIGER

@<TRIPOS>ATOM
      1 P          22.2652   73.3964   -5.8437 P.3     1  UNL1        0.2189
      2 O          22.3685   74.9989   -6.0404 O.3     1  UNL1       -0.4371
      3 O          22.5525   72.5877   -7.0748 O.2     1  UNL1       -0.5170
      4 O          20.8047   73.1780   -5.1842 O.3     1  UNL1       -0.3112
      5 C          20.0593   72.0304   -5.5538 C.3     1  UNL1        0.1811
      6 O          18.8195   71.7587   -3.5133 O.3     1  UNL1       -0.3308
      7 O          19.7064   68.8949   -3.5753 O.3     1  UNL1       -0.3794
      8 O          17.1494   68.7468   -4.5111 O.3     1  UNL1       -0.3779
      9 C          19.3565   69.7557   -4.6589 C.3     1  UNL1        0.1713
     10 C          17.8562   69.9538   -4.7089 C.3     1  UNL1        0.1895
     11 C          19.8520   71.1566   -4.3249 C.3     1  UNL1        0.1764
     12 C          17.6320   70.9525   -3.5862 C.3     1  UNL1        0.2383
     13 H          20.6764   68.8290   -3.5590 H       1  UNL1        0.2105
     14 H          17.4300   68.1262   -5.2056 H       1  UNL1        0.2106
     15 O          15.6027   71.4866   -1.6963 O.2     1  UNL1       -0.2464
     16 O          13.3455   74.2371   -4.6252 O.2     1  UNL1       -0.2670
     17 N          16.5030   71.8047   -3.8279 N.ar    1  UNL1       -0.2551
     18 N          14.4797   72.8555   -3.1562 N.ar    1  UNL1       -0.2743
     19 C          15.5396   72.0061   -2.8120 C.ar    1  UNL1        0.3323
     20 C          16.3584   72.4307   -5.0610 C.ar    1  UNL1        0.0869
     21 C          15.3424   73.2381   -5.3736 C.ar    1  UNL1        0.0795
     22 C          14.2928   73.5003   -4.3690 C.ar    1  UNL1        0.2626
     23 H          13.7748   73.0144   -2.4414 H       1  UNL1        0.1734
     24 O          23.2679   73.1180   -4.6058 O.3     1  UNL1       -0.2703
     25 P          23.8847   74.1177   -3.4955 P.3     1  UNL1        0.2208
     26 O          22.8918   75.3932   -3.5521 O.3     1  UNL1       -0.4371
     27 O          25.3343   74.4507   -3.7040 O.2     1  UNL1       -0.5170
     28 O          23.5600   73.4096   -2.0823 O.3     1  UNL1       -0.2858
     29 O          21.7767   72.0239   -1.3757 O.3     1  UNL1       -0.3226
     30 O          22.5665   74.2419    2.0501 O.3     1  UNL1       -0.3794
     31 O          22.5928   75.5112   -0.5755 O.3     1  UNL1       -0.3775
     32 O          20.9987   72.0666    1.3868 O.3     1  UNL1       -0.3792
     33 C          22.8269   73.5457    0.8345 C.3     1  UNL1        0.1718
     34 C          22.0807   74.2058   -0.3298 C.3     1  UNL1        0.1968
     35 C          22.3737   72.0914    0.9900 C.3     1  UNL1        0.1723
     36 C          22.2153   73.3668   -1.6067 C.3     1  UNL1        0.2706
     37 C          22.5126   71.3650   -0.3462 C.3     1  UNL1        0.1830
     38 H          23.0556   73.7891    2.7581 H       1  UNL1        0.2105
     39 H          22.0979   75.8844   -1.3243 H       1  UNL1        0.2106
     40 H          20.4513   72.3051    0.6195 H       1  UNL1        0.2106
     41 O          21.3704   69.6357   -1.4456 O.co2   1  UNL1       -0.5466
     42 O          22.0295   69.2439    0.7013 O.co2   1  UNL1       -0.5466
     43 C          21.9600   69.9770   -0.2745 C.2     1  UNL1        0.0799
@<TRIPOS>UNITY_ATOM_ATTR
41 1
charge -1
@<TRIPOS>BOND
     1     1     4    1
     2     1    24    1
     3     1     2    1
     4     1     3    2
     5    25    28    1
     6    25    24    1
     7    25    26    1
     8    25    27    2
     9     6    11    1
    10     6    12    1
    11    29    36    1
    12    29    37    1
    13     7     9    1
    14     7    13    1
    15     8    10    1
    16     8    14    1
    17     4     5    1
    18    28    36    1
    19    30    33    1
    20    30    38    1
    21    31    34    1
    22    31    39    1
    23    32    35    1
    24    32    40    1
    25    41    43   ar
    26    15    19    2
    27    42    43   ar
    28    16    22    2
    29    17    12    1
    30    17    19   ar
    31    17    20   ar
    32    18    19   ar
    33    18    22   ar
    34    18    23    1
    35     9    10    1
    36     9    11    1
    37    10    12    1
    38    11     5    1
    39    33    34    1
    40    33    35    1
    41    34    36    1
    42    35    37    1
    43    37    43    1
    44    20    21   ar
    45    21    22   ar
@<TRIPOS>MOLECULE
UDP-glaA
 43 45 0 0 0
SMALL
GASTEIGER

@<TRIPOS>ATOM
      1 P          18.0397   75.1246   -1.1371 P.3     1  UNL1        0.2189
      2 O          16.9108   74.5982   -0.1047 O.3     1  UNL1       -0.4371
      3 O          17.6060   76.2511   -2.0288 O.2     1  UNL1       -0.5170
      4 O          18.5348   73.7821   -1.8909 O.3     1  UNL1       -0.3112
      5 C          18.3159   73.6691   -3.2868 C.3     1  UNL1        0.1811
      6 O          16.6771   73.1036   -4.9508 O.3     1  UNL1       -0.3308
      7 O          15.3704   71.4365   -2.8284 O.3     1  UNL1       -0.3794
      8 O          16.7147   69.5775   -4.3024 O.3     1  UNL1       -0.3779
      9 C          16.7584   71.6704   -3.0662 C.3     1  UNL1        0.1713
     10 C          17.2206   70.8962   -4.2825 C.3     1  UNL1        0.1895
     11 C          16.9194   73.1133   -3.5266 C.3     1  UNL1        0.1764
     12 C          16.6817   71.7456   -5.4210 C.3     1  UNL1        0.2383
     13 H          15.1111   71.9817   -2.0661 H       1  UNL1        0.2105
     14 H          17.0150   69.1365   -3.4890 H       1  UNL1        0.2106
     15 O          15.8074   72.4377   -8.0156 O.2     1  UNL1       -0.2464
     16 O          19.8919   71.3833   -9.8714 O.2     1  UNL1       -0.2670
     17 N          17.4956   71.6623   -6.6000 N.ar    1  UNL1       -0.2551
     18 N          17.8417   71.9117   -8.9381 N.ar    1  UNL1       -0.2743
     19 C          16.9604   72.0330   -7.8557 C.ar    1  UNL1        0.3323
     20 C          18.8094   71.2167   -6.5052 C.ar    1  UNL1        0.0869
     21 C          19.6372   71.1071   -7.5466 C.ar    1  UNL1        0.0795
     22 C          19.1561   71.4733   -8.8934 C.ar    1  UNL1        0.2626
     23 H          17.4782   72.1721   -9.8509 H       1  UNL1        0.1734
     24 O          19.2840   75.4754   -0.1656 O.3     1  UNL1       -0.2703
     25 P          20.8785   75.4291   -0.4262 P.3     1  UNL1        0.2208
     26 O          21.4986   75.4205    1.0676 O.3     1  UNL1       -0.4371
     27 O          21.3915   76.5346   -1.3041 O.2     1  UNL1       -0.5170
     28 O          21.1573   73.9441   -0.9927 O.3     1  UNL1       -0.2858
     29 O          22.8766   72.3507   -0.6695 O.3     1  UNL1       -0.3226
     30 O          22.0738   71.9545   -4.7288 O.3     1  UNL1       -0.3794
     31 O          22.1542   74.5911   -3.4848 O.3     1  UNL1       -0.3775
     32 O          23.5864   70.6168   -2.8440 O.3     1  UNL1       -0.3792
     33 C          21.8214   72.1877   -3.3460 C.3     1  UNL1        0.1718
     34 C          22.6174   73.4015   -2.8547 C.3     1  UNL1        0.1968
     35 C          22.2233   70.9416   -2.5522 C.3     1  UNL1        0.1723
     36 C          22.4876   73.5571   -1.3344 C.3     1  UNL1        0.2706
     37 C          22.0943   71.2221   -1.0566 C.3     1  UNL1        0.1830
     38 H          21.5528   71.1779   -4.9952 H       1  UNL1        0.2105
     39 H          22.6794   75.3312   -3.1366 H       1  UNL1        0.2106
     40 H          24.1602   71.2617   -2.3967 H       1  UNL1        0.2106
     41 O          21.5842   69.4846    0.4350 O.co2   1  UNL1       -0.5466
     42 O          23.7661   69.7141   -0.1843 O.co2   1  UNL1       -0.5466
     43 C          22.5997   70.0760   -0.2393 C.2     1  UNL1        0.0799
@<TRIPOS>UNITY_ATOM_ATTR
41 1
charge -1
@<TRIPOS>BOND
     1     1     4    1
     2     1    24    1
     3     1     2    1
     4     1     3    2
     5    25    28    1
     6    25    24    1
     7    25    26    1
     8    25    27    2
     9     6    11    1
    10     6    12    1
    11    29    36    1
    12    29    37    1
    13     7     9    1
    14     7    13    1
    15     8    10    1
    16     8    14    1
    17     4     5    1
    18    28    36    1
    19    30    33    1
    20    30    38    1
    21    31    34    1
    22    31    39    1
    23    32    35    1
    24    32    40    1
    25    41    43   ar
    26    15    19    2
    27    42    43   ar
    28    16    22    2
    29    17    12    1
    30    17    19   ar
    31    17    20   ar
    32    18    19   ar
    33    18    22   ar
    34    18    23    1
    35     9    10    1
    36     9    11    1
    37    10    12    1
    38    11     5    1
    39    33    34    1
    40    33    35    1
    41    34    36    1
    42    35    37    1
    43    37    43    1
    44    20    21   ar
    45    21    22   ar
@<TRIPOS>MOLECULE
UDP-glaA
 43 45 0 0 0
SMALL
GASTEIGER

@<TRIPOS>ATOM
      1 P          21.7580   73.2897   -5.4136 P.3     1  UNL1        0.2189
      2 O          21.3368   74.7817   -5.8763 O.3     1  UNL1       -0.4371
      3 O          23.2342   73.0681   -5.2588 O.2     1  UNL1       -0.5170
      4 O          21.0102   72.3265   -6.4758 O.3     1  UNL1       -0.3112
      5 C          21.1276   72.6215   -7.8573 C.3     1  UNL1        0.1811
      6 O          19.5596   70.8069   -7.7060 O.3     1  UNL1       -0.3308
      7 O          18.6989   71.5663  -10.4762 O.3     1  UNL1       -0.3794
      8 O          16.7459   72.6664   -8.9232 O.3     1  UNL1       -0.3779
      9 C          19.1158   72.4043   -9.3983 C.3     1  UNL1        0.1713
     10 C          18.0260   72.4941   -8.3511 C.3     1  UNL1        0.1895
     11 C          20.2243   71.6821   -8.6437 C.3     1  UNL1        0.1764
     12 C          18.1696   71.1641   -7.6310 C.3     1  UNL1        0.2383
     13 H          19.4413   71.5073  -11.1013 H       1  UNL1        0.2105
     14 H          16.7700   73.4810   -9.4543 H       1  UNL1        0.2106
     15 O          17.9957   73.5665   -6.1567 O.2     1  UNL1       -0.2464
     16 O          16.6702   71.3444   -2.3431 O.2     1  UNL1       -0.2670
     17 N          17.7812   71.2427   -6.2518 N.ar    1  UNL1       -0.2551
     18 N          17.3363   72.4583   -4.2585 N.ar    1  UNL1       -0.2743
     19 C          17.7265   72.4987   -5.6036 C.ar    1  UNL1        0.3323
     20 C          17.4594   70.0831   -5.5551 C.ar    1  UNL1        0.0869
     21 C          17.0887   70.0612   -4.2730 C.ar    1  UNL1        0.0795
     22 C          17.0071   71.3303   -3.5231 C.ar    1  UNL1        0.2626
     23 H          17.2906   73.3497   -3.7722 H       1  UNL1        0.1734
     24 O          20.8991   73.0740   -4.0605 O.3     1  UNL1       -0.2703
     25 P          20.8026   71.8115   -3.0558 P.3     1  UNL1        0.2208
     26 O          22.2130   71.8575   -2.2655 O.3     1  UNL1       -0.4371
     27 O          20.5154   70.5036   -3.7361 O.2     1  UNL1       -0.5170
     28 O          19.7041   72.2465   -1.9567 O.3     1  UNL1       -0.2858
     29 O          20.7280   72.0378    0.1664 O.3     1  UNL1       -0.3226
     30 O          23.3546   74.5729   -1.8219 O.3     1  UNL1       -0.3794
     31 O          20.4716   74.8933   -2.1244 O.3     1  UNL1       -0.3775
     32 O          23.3187   73.2034    0.5767 O.3     1  UNL1       -0.3792
     33 C          22.4154   73.5167   -1.6416 C.3     1  UNL1        0.1718
     34 C          21.0795   74.0702   -1.1346 C.3     1  UNL1        0.1968
     35 C          22.9842   72.5150   -0.6329 C.3     1  UNL1        0.1723
     36 C          20.1202   72.9289   -0.7746 C.3     1  UNL1        0.2706
     37 C          21.9347   71.4511   -0.3187 C.3     1  UNL1        0.1830
     38 H          24.1838   74.1771   -2.1403 H       1  UNL1        0.2105
     39 H          19.6274   75.2119   -1.7631 H       1  UNL1        0.2106
     40 H          22.4954   73.4243    1.0441 H       1  UNL1        0.2106
     41 O          22.0210   70.9808    1.9781 O.co2   1  UNL1       -0.5466
     42 O          23.0328   69.4954    0.5755 O.co2   1  UNL1       -0.5466
     43 C          22.4001   70.5251    0.7598 C.2     1  UNL1        0.0799
@<TRIPOS>UNITY_ATOM_ATTR
41 1
charge -1
@<TRIPOS>BOND
     1     1     4    1
     2     1    24    1
     3     1     2    1
     4     1     3    2
     5    25    28    1
     6    25    24    1
     7    25    26    1
     8    25    27    2
     9     6    11    1
    10     6    12    1
    11    29    36    1
    12    29    37    1
    13     7     9    1
    14     7    13    1
    15     8    10    1
    16     8    14    1
    17     4     5    1
    18    28    36    1
    19    30    33    1
    20    30    38    1
    21    31    34    1
    22    31    39    1
    23    32    35    1
    24    32    40    1
    25    41    43   ar
    26    15    19    2
    27    42    43   ar
    28    16    22    2
    29    17    12    1
    30    17    19   ar
    31    17    20   ar
    32    18    19   ar
    33    18    22   ar
    34    18    23    1
    35     9    10    1
    36     9    11    1
    37    10    12    1
    38    11     5    1
    39    33    34    1
    40    33    35    1
    41    34    36    1
    42    35    37    1
    43    37    43    1
    44    20    21   ar
    45    21    22   ar
@<TRIPOS>MOLECULE
UDP-glaA
 43 45 0 0 0
SMALL
GASTEIGER

@<TRIPOS>ATOM
      1 P          19.5076   70.5095   -2.3725 P.3     1  UNL1        0.2189
      2 O          18.2733   69.4718   -2.5028 O.3     1  UNL1       -0.4371
      3 O          19.1333   71.8812   -1.8926 O.2     1  UNL1       -0.5170
      4 O          20.2270   70.4431   -3.8195 O.3     1  UNL1       -0.3112
      5 C          19.4555   70.0516   -4.9423 C.3     1  UNL1        0.1811
      6 O          18.8576   72.2977   -5.5520 O.3     1  UNL1       -0.3308
      7 O          16.0730   71.2532   -5.9350 O.3     1  UNL1       -0.3794
      8 O          17.0148   71.3893   -8.4905 O.3     1  UNL1       -0.3779
      9 C          17.3217   70.6166   -6.2059 C.3     1  UNL1        0.1713
     10 C          17.9524   71.2055   -7.4500 C.3     1  UNL1        0.1895
     11 C          18.3064   71.0336   -5.1214 C.3     1  UNL1        0.1764
     12 C          18.5117   72.5185   -6.9293 C.3     1  UNL1        0.2383
     13 H          15.7262   70.8720   -5.1104 H       1  UNL1        0.2105
     14 H          16.6250   70.5207   -8.6900 H       1  UNL1        0.2106
     15 O          20.2307   70.7743   -8.3357 O.2     1  UNL1       -0.2464
     16 O          22.9813   74.2368   -9.6335 O.2     1  UNL1       -0.2670
     17 N          19.6837   72.9371   -7.6439 N.ar    1  UNL1       -0.2551
     18 N          21.5996   72.4996   -8.9806 N.ar    1  UNL1       -0.2743
     19 C          20.4799   71.9811   -8.3168 C.ar    1  UNL1        0.3323
     20 C          20.0342   74.2823   -7.6731 C.ar    1  UNL1        0.0869
     21 C          21.1046   74.7610   -8.3109 C.ar    1  UNL1        0.0795
     22 C          21.9891   73.8288   -9.0377 C.ar    1  UNL1        0.2626
     23 H          22.1870   71.8304   -9.4708 H       1  UNL1        0.1734
     24 O          20.5447   69.7206   -1.4148 O.3     1  UNL1       -0.2703
     25 P          21.8472   70.2374   -0.6092 P.3     1  UNL1        0.2208
     26 O          22.7242   70.9711   -1.7532 O.3     1  UNL1       -0.4371
     27 O          22.5789   69.1581    0.1361 O.2     1  UNL1       -0.5170
     28 O          21.3027   71.4383    0.3210 O.3     1  UNL1       -0.2858
     29 O          21.7244   73.7579    0.5246 O.3     1  UNL1       -0.3226
     30 O          21.5248   72.5569    4.4991 O.3     1  UNL1       -0.3794
     31 O          22.8865   70.9047    2.5187 O.3     1  UNL1       -0.3775
     32 O          21.6674   74.9536    3.1333 O.3     1  UNL1       -0.3792
     33 C          21.2256   72.5789    3.1062 C.3     1  UNL1        0.1718
     34 C          22.4768   72.2481    2.2855 C.3     1  UNL1        0.1968
     35 C          20.7072   73.9705    2.7330 C.3     1  UNL1        0.1723
     36 C          22.2092   72.4369    0.7871 C.3     1  UNL1        0.2706
     37 C          20.5156   74.0581    1.2204 C.3     1  UNL1        0.1830
     38 H          20.7069   72.7737    4.9783 H       1  UNL1        0.2105
     39 H          23.6733   70.7389    1.9726 H       1  UNL1        0.2106
     40 H          22.4227   74.9145    2.5224 H       1  UNL1        0.2106
     41 O          20.3204   75.6012   -0.5358 O.co2   1  UNL1       -0.5466
     42 O          19.7077   76.3106    1.5422 O.co2   1  UNL1       -0.5466
     43 C          20.1336   75.4406    0.7964 C.2     1  UNL1        0.0799
@<TRIPOS>UNITY_ATOM_ATTR
41 1
charge -1
@<TRIPOS>BOND
     1     1     4    1
     2     1    24    1
     3     1     2    1
     4     1     3    2
     5    25    28    1
     6    25    24    1
     7    25    26    1
     8    25    27    2
     9     6    11    1
    10     6    12    1
    11    29    36    1
    12    29    37    1
    13     7     9    1
    14     7    13    1
    15     8    10    1
    16     8    14    1
    17     4     5    1
    18    28    36    1
    19    30    33    1
    20    30    38    1
    21    31    34    1
    22    31    39    1
    23    32    35    1
    24    32    40    1
    25    41    43   ar
    26    15    19    2
    27    42    43   ar
    28    16    22    2
    29    17    12    1
    30    17    19   ar
    31    17    20   ar
    32    18    19   ar
    33    18    22   ar
    34    18    23    1
    35     9    10    1
    36     9    11    1
    37    10    12    1
    38    11     5    1
    39    33    34    1
    40    33    35    1
    41    34    36    1
    42    35    37    1
    43    37    43    1
    44    20    21   ar
    45    21    22   ar
@<TRIPOS>MOLECULE
UDP-glaA
 43 45 0 0 0
SMALL
GASTEIGER

@<TRIPOS>ATOM
      1 P          18.5273   70.2076   -3.0846 P.3     1  UNL1        0.2189
      2 O          17.1180   70.7541   -2.5080 O.3     1  UNL1       -0.4371
      3 O          19.2525   69.2524   -2.1825 O.2     1  UNL1       -0.5170
      4 O          19.3347   71.5522   -3.4792 O.3     1  UNL1       -0.3112
      5 C          19.8837   72.3427   -2.4386 C.3     1  UNL1        0.1811
      6 O          21.9137   73.3332   -1.6187 O.3     1  UNL1       -0.3308
      7 O          23.3570   71.3677   -3.3637 O.3     1  UNL1       -0.3794
      8 O          23.5557   70.2293   -0.8937 O.3     1  UNL1       -0.3779
      9 C          22.1486   71.2002   -2.6224 C.3     1  UNL1        0.1713
     10 C          22.4522   71.0750   -1.1443 C.3     1  UNL1        0.1895
     11 C          21.3770   72.5121   -2.6793 C.3     1  UNL1        0.1764
     12 C          22.7221   72.5182   -0.7541 C.3     1  UNL1        0.2383
     13 H          23.1107   71.4825   -4.2973 H       1  UNL1        0.2105
     14 H          23.3468   69.3566   -1.2692 H       1  UNL1        0.2106
     15 O          21.3118   70.7332    0.9193 O.2     1  UNL1       -0.2464
     16 O          21.4244   73.6779    4.4626 O.2     1  UNL1       -0.2670
     17 N          22.3701   72.7923    0.6098 N.ar    1  UNL1       -0.2551
     18 N          21.3683   72.2010    2.6825 N.ar    1  UNL1       -0.2743
     19 C          21.6601   71.8287    1.3636 C.ar    1  UNL1        0.3323
     20 C          22.7277   74.0054    1.1877 C.ar    1  UNL1        0.0869
     21 C          22.4426   74.3453    2.4466 C.ar    1  UNL1        0.0795
     22 C          21.7026   73.3956    3.3012 C.ar    1  UNL1        0.2626
     23 H          20.8580   71.5239    3.2430 H       1  UNL1        0.1734
     24 O          18.1168   69.5949   -4.5238 O.3     1  UNL1       -0.2703
     25 P          17.1825   70.1887   -5.7014 P.3     1  UNL1        0.2208
     26 O          16.4217   71.4231   -4.9847 O.3     1  UNL1       -0.4371
     27 O          16.2672   69.1776   -6.3305 O.2     1  UNL1       -0.5170
     28 O          18.2131   70.8855   -6.7291 O.3     1  UNL1       -0.2858
     29 O          19.6657   72.7460   -6.5626 O.3     1  UNL1       -0.3226
     30 O          18.2716   73.0760  -10.4648 O.3     1  UNL1       -0.3794
     31 O          16.4623   72.3273   -8.3033 O.3     1  UNL1       -0.3775
     32 O          20.2025   74.3006   -8.9150 O.3     1  UNL1       -0.3792
     33 C          18.6938   72.4457   -9.2587 C.3     1  UNL1        0.1718
     34 C          17.7741   72.8412   -8.0985 C.3     1  UNL1        0.1968
     35 C          20.1329   72.8714   -8.9549 C.3     1  UNL1        0.1723
     36 C          18.3185   72.3080   -6.7675 C.3     1  UNL1        0.2706
     37 C          20.5547   72.3208   -7.5944 C.3     1  UNL1        0.1830
     38 H          18.8821   72.7997  -11.1694 H       1  UNL1        0.2105
     39 H          15.9204   72.5942   -7.5417 H       1  UNL1        0.2106
     40 H          19.7865   74.6072   -8.0916 H       1  UNL1        0.2106
     41 O          22.1536   72.5500   -5.8930 O.co2   1  UNL1       -0.5466
     42 O          22.6915   73.3894   -7.9431 O.co2   1  UNL1       -0.5466
     43 C          21.9079   72.8194   -7.1979 C.2     1  UNL1        0.0799
@<TRIPOS>UNITY_ATOM_ATTR
41 1
charge -1
@<TRIPOS>BOND
     1     1     4    1
     2     1    24    1
     3     1     2    1
     4     1     3    2
     5    25    28    1
     6    25    24    1
     7    25    26    1
     8    25    27    2
     9     6    11    1
    10     6    12    1
    11    29    36    1
    12    29    37    1
    13     7     9    1
    14     7    13    1
    15     8    10    1
    16     8    14    1
    17     4     5    1
    18    28    36    1
    19    30    33    1
    20    30    38    1
    21    31    34    1
    22    31    39    1
    23    32    35    1
    24    32    40    1
    25    41    43   ar
    26    15    19    2
    27    42    43   ar
    28    16    22    2
    29    17    12    1
    30    17    19   ar
    31    17    20   ar
    32    18    19   ar
    33    18    22   ar
    34    18    23    1
    35     9    10    1
    36     9    11    1
    37    10    12    1
    38    11     5    1
    39    33    34    1
    40    33    35    1
    41    34    36    1
    42    35    37    1
    43    37    43    1
    44    20    21   ar
    45    21    22   ar
@<TRIPOS>MOLECULE
UDP-glaA
 43 45 0 0 0
SMALL
GASTEIGER

@<TRIPOS>ATOM
      1 P          19.4499   70.8448   -4.2319 P.3     1  UNL1        0.2189
      2 O          18.5087   69.7256   -3.5400 O.3     1  UNL1       -0.4371
      3 O          18.9353   72.2513   -4.1368 O.2     1  UNL1       -0.5170
      4 O          19.6870   70.2829   -5.7297 O.3     1  UNL1       -0.3112
      5 C          19.8096   71.2143   -6.7912 C.3     1  UNL1        0.1811
      6 O          17.5228   71.0979   -7.5199 O.3     1  UNL1       -0.3308
      7 O          18.6180   70.8010  -10.2955 O.3     1  UNL1       -0.3794
      8 O          17.8914   73.4282  -10.2199 O.3     1  UNL1       -0.3779
      9 C          19.1114   71.5843   -9.2088 C.3     1  UNL1        0.1713
     10 C          18.2380   72.8035   -9.0012 C.3     1  UNL1        0.1895
     11 C          18.8784   70.8026   -7.9226 C.3     1  UNL1        0.1764
     12 C          17.0354   72.2123   -8.2854 C.3     1  UNL1        0.2383
     13 H          19.1840   70.0134  -10.3654 H       1  UNL1        0.2105
     14 H          18.7187   73.6792  -10.6657 H       1  UNL1        0.2106
     15 O          16.0027   71.5567   -5.7400 O.2     1  UNL1       -0.2464
     16 O          14.6536   75.8951   -4.9678 O.2     1  UNL1       -0.2670
     17 N          16.4097   73.1506   -7.3981 N.ar    1  UNL1       -0.2551
     18 N          15.3311   73.7174   -5.3574 N.ar    1  UNL1       -0.2743
     19 C          15.9236   72.7190   -6.1418 C.ar    1  UNL1        0.3323
     20 C          16.2824   74.4828   -7.7755 C.ar    1  UNL1        0.0869
     21 C          15.7154   75.4228   -7.0161 C.ar    1  UNL1        0.0795
     22 C          15.1813   75.0548   -5.6899 C.ar    1  UNL1        0.2626
     23 H          14.9740   73.4298   -4.4503 H       1  UNL1        0.1734
     24 O          20.8827   70.6025   -3.5222 O.3     1  UNL1       -0.2703
     25 P          22.1526   71.5847   -3.3345 P.3     1  UNL1        0.2208
     26 O          22.1014   72.5143   -4.6571 O.3     1  UNL1       -0.4371
     27 O          23.4580   70.8712   -3.1283 O.2     1  UNL1       -0.5170
     28 O          21.7330   72.5693   -2.1268 O.3     1  UNL1       -0.2858
     29 O          21.2822   70.9990   -0.4150 O.3     1  UNL1       -0.3226
     30 O          21.2564   74.5939    1.6719 O.3     1  UNL1       -0.3794
     31 O          20.0267   74.4031   -0.9657 O.3     1  UNL1       -0.3775
     32 O          21.1761   71.9066    2.3060 O.3     1  UNL1       -0.3792
     33 C          21.6370   73.6382    0.6860 C.3     1  UNL1        0.1718
     34 C          20.4390   73.2769   -0.1986 C.3     1  UNL1        0.1968
     35 C          22.1658   72.3851    1.3892 C.3     1  UNL1        0.1723
     36 C          20.7929   72.1263   -1.1490 C.3     1  UNL1        0.2706
     37 C          22.4455   71.2961    0.3557 C.3     1  UNL1        0.1830
     38 H          22.0430   74.7907    2.2088 H       1  UNL1        0.2105
     39 H          19.2747   74.1245   -1.5150 H       1  UNL1        0.2106
     40 H          20.4585   71.4924    1.7974 H       1  UNL1        0.2106
     41 O          22.2982   68.9547    0.3558 O.co2   1  UNL1       -0.5466
     42 O          23.5578   69.9157    1.9949 O.co2   1  UNL1       -0.5466
     43 C          22.8411   70.0102    1.0091 C.2     1  UNL1        0.0799
@<TRIPOS>UNITY_ATOM_ATTR
41 1
charge -1
@<TRIPOS>BOND
     1     1     4    1
     2     1    24    1
     3     1     2    1
     4     1     3    2
     5    25    28    1
     6    25    24    1
     7    25    26    1
     8    25    27    2
     9     6    11    1
    10     6    12    1
    11    29    36    1
    12    29    37    1
    13     7     9    1
    14     7    13    1
    15     8    10    1
    16     8    14    1
    17     4     5    1
    18    28    36    1
    19    30    33    1
    20    30    38    1
    21    31    34    1
    22    31    39    1
    23    32    35    1
    24    32    40    1
    25    41    43   ar
    26    15    19    2
    27    42    43   ar
    28    16    22    2
    29    17    12    1
    30    17    19   ar
    31    17    20   ar
    32    18    19   ar
    33    18    22   ar
    34    18    23    1
    35     9    10    1
    36     9    11    1
    37    10    12    1
    38    11     5    1
    39    33    34    1
    40    33    35    1
    41    34    36    1
    42    35    37    1
    43    37    43    1
    44    20    21   ar
    45    21    22   ar
@<TRIPOS>MOLECULE
UDP-glaA
 43 45 0 0 0
SMALL
GASTEIGER

@<TRIPOS>ATOM
      1 P          22.3977   74.7923   -5.7894 P.3     1  UNL1        0.2189
      2 O          21.0443   75.5382   -6.2682 O.3     1  UNL1       -0.4371
      3 O          23.6313   75.6467   -5.8065 O.2     1  UNL1       -0.5170
      4 O          22.4527   73.4598   -6.7042 O.3     1  UNL1       -0.3112
      5 C          21.4423   73.2651   -7.6790 C.3     1  UNL1        0.1811
      6 O          19.6959   71.9211   -6.7207 O.3     1  UNL1       -0.3308
      7 O          20.4610   69.8289   -8.7278 O.3     1  UNL1       -0.3794
      8 O          18.2407   70.9462   -9.8492 O.3     1  UNL1       -0.3779
      9 C          20.4435   71.2495   -8.8661 C.3     1  UNL1        0.1713
     10 C          19.0187   71.7481   -8.9847 C.3     1  UNL1        0.1895
     11 C          20.8839   71.8559   -7.5402 C.3     1  UNL1        0.1764
     12 C          18.5415   71.6863   -7.5438 C.3     1  UNL1        0.2383
     13 H          21.3888   69.5600   -8.6160 H       1  UNL1        0.2105
     14 H          18.6725   70.9514  -10.7208 H       1  UNL1        0.2106
     15 O          18.6344   73.4284   -5.3229 O.2     1  UNL1       -0.2464
     16 O          14.6773   75.4635   -6.5223 O.2     1  UNL1       -0.2670
     17 N          17.5495   72.6813   -7.2517 N.ar    1  UNL1       -0.2551
     18 N          16.6636   74.4403   -5.9213 N.ar    1  UNL1       -0.2743
     19 C          17.6895   73.5049   -6.1103 C.ar    1  UNL1        0.3323
     20 C          16.4520   72.8334   -8.0919 C.ar    1  UNL1        0.0869
     21 C          15.4825   73.7303   -7.8983 C.ar    1  UNL1        0.0795
     22 C          15.5527   74.6286   -6.7289 C.ar    1  UNL1        0.2626
     23 H          16.7431   75.0429   -5.1066 H       1  UNL1        0.1734
     24 O          21.9977   74.2161   -4.3322 O.3     1  UNL1       -0.2703
     25 P          22.3649   72.8189   -3.6072 P.3     1  UNL1        0.2208
     26 O          23.9433   72.6449   -3.9147 O.3     1  UNL1       -0.4371
     27 O          21.5169   71.6579   -4.0418 O.2     1  UNL1       -0.5170
     28 O          22.2899   73.1452   -2.0287 O.3     1  UNL1       -0.2858
     29 O          21.4785   71.3774   -0.6812 O.3     1  UNL1       -0.3226
     30 O          21.4989   74.5662    1.9853 O.3     1  UNL1       -0.3794
     31 O          20.6160   74.9433   -0.7687 O.3     1  UNL1       -0.3775
     32 O          21.0957   71.8372    2.1261 O.3     1  UNL1       -0.3792
     33 C          21.9194   73.7471    0.8978 C.3     1  UNL1        0.1718
     34 C          20.8211   73.6689   -0.1681 C.3     1  UNL1        0.1968
     35 C          22.2365   72.3458    1.4270 C.3     1  UNL1        0.1723
     36 C          21.1932   72.6560   -1.2580 C.3     1  UNL1        0.2706
     37 C          22.5518   71.4150    0.2581 C.3     1  UNL1        0.1830
     38 H          22.2221   74.5850    2.6351 H       1  UNL1        0.2105
     39 H          19.9212   74.8424   -1.4409 H       1  UNL1        0.2106
     40 H          20.4174   71.5929    1.4738 H       1  UNL1        0.2106
     41 O          23.4275   69.9695    1.8852 O.co2   1  UNL1       -0.5466
     42 O          22.3332   69.0139    0.1284 O.co2   1  UNL1       -0.5466
     43 C          22.7411   70.0043    0.7176 C.2     1  UNL1        0.0799
@<TRIPOS>UNITY_ATOM_ATTR
41 1
charge -1
@<TRIPOS>BOND
     1     1     4    1
     2     1    24    1
     3     1     2    1
     4     1     3    2
     5    25    28    1
     6    25    24    1
     7    25    26    1
     8    25    27    2
     9     6    11    1
    10     6    12    1
    11    29    36    1
    12    29    37    1
    13     7     9    1
    14     7    13    1
    15     8    10    1
    16     8    14    1
    17     4     5    1
    18    28    36    1
    19    30    33    1
    20    30    38    1
    21    31    34    1
    22    31    39    1
    23    32    35    1
    24    32    40    1
    25    41    43   ar
    26    15    19    2
    27    42    43   ar
    28    16    22    2
    29    17    12    1
    30    17    19   ar
    31    17    20   ar
    32    18    19   ar
    33    18    22   ar
    34    18    23    1
    35     9    10    1
    36     9    11    1
    37    10    12    1
    38    11     5    1
    39    33    34    1
    40    33    35    1
    41    34    36    1
    42    35    37    1
    43    37    43    1
    44    20    21   ar
    45    21    22   ar
@<TRIPOS>MOLECULE
UDP-glaA
 43 45 0 0 0
SMALL
GASTEIGER

@<TRIPOS>ATOM
      1 P          19.5423   71.4102   -3.1929 P.3     1  UNL1        0.2189
      2 O          19.1367   69.8571   -2.9910 O.3     1  UNL1       -0.4371
      3 O          19.0801   72.3320   -2.1025 O.2     1  UNL1       -0.5170
      4 O          19.0140   71.7608   -4.6807 O.3     1  UNL1       -0.3112
      5 C          18.3081   70.7648   -5.4011 C.3     1  UNL1        0.1811
      6 O          18.0541   72.6857   -6.8223 O.3     1  UNL1       -0.3308
      7 O          16.1008   71.0356   -8.3885 O.3     1  UNL1       -0.3794
      8 O          18.3597   70.8867   -9.9087 O.3     1  UNL1       -0.3779
      9 C          17.3034   70.6319   -7.7339 C.3     1  UNL1        0.1713
     10 C          18.5109   71.0972   -8.5201 C.3     1  UNL1        0.1895
     11 C          17.4310   71.4373   -6.4475 C.3     1  UNL1        0.1764
     12 C          18.5759   72.5708   -8.1564 C.3     1  UNL1        0.2383
     13 H          15.3573   70.7508   -7.8303 H       1  UNL1        0.2105
     14 H          18.2151   69.9347  -10.0465 H       1  UNL1        0.2106
     15 O          20.8929   70.9905   -7.8249 O.2     1  UNL1       -0.2464
     16 O          23.6686   74.6434   -8.2608 O.2     1  UNL1       -0.2670
     17 N          19.9164   73.0825   -8.1794 N.ar    1  UNL1       -0.2551
     18 N          22.2735   72.8106   -8.0416 N.ar    1  UNL1       -0.2743
     19 C          21.0110   72.2043   -8.0020 C.ar    1  UNL1        0.3323
     20 C          20.1364   74.4413   -8.3758 C.ar    1  UNL1        0.0869
     21 C          21.3463   75.0040   -8.4115 C.ar    1  UNL1        0.0795
     22 C          22.5423   74.1570   -8.2338 C.ar    1  UNL1        0.2626
     23 H          23.0752   72.1986   -7.9158 H       1  UNL1        0.1734
     24 O          21.1468   71.3438   -3.3835 O.3     1  UNL1       -0.2703
     25 P          22.3294   71.0494   -2.3217 P.3     1  UNL1        0.2208
     26 O          23.4917   70.3913   -3.2338 O.3     1  UNL1       -0.4371
     27 O          21.9100   70.2086   -1.1500 O.2     1  UNL1       -0.5170
     28 O          22.8967   72.5076   -1.9268 O.3     1  UNL1       -0.2858
     29 O          22.2550   74.7818   -1.8019 O.3     1  UNL1       -0.3226
     30 O          25.6701   74.9690   -4.1643 O.3     1  UNL1       -0.3794
     31 O          23.7232   72.8305   -4.5412 O.3     1  UNL1       -0.3775
     32 O          23.9902   76.7754   -2.9214 O.3     1  UNL1       -0.3792
     33 C          24.7907   74.5071   -3.1427 C.3     1  UNL1        0.1718
     34 C          23.4834   73.9929   -3.7551 C.3     1  UNL1        0.1968
     35 C          24.4998   75.6618   -2.1803 C.3     1  UNL1        0.1723
     36 C          22.4660   73.6545   -2.6584 C.3     1  UNL1        0.2706
     37 C          23.4490   75.2278   -1.1607 C.3     1  UNL1        0.1830
     38 H          26.4811   75.2864   -3.7318 H       1  UNL1        0.2105
     39 H          22.8684   72.5369   -4.8992 H       1  UNL1        0.2106
     40 H          23.0761   76.5774   -3.1868 H       1  UNL1        0.2106
     41 O          24.0927   77.1766   -0.0242 O.co2   1  UNL1       -0.5466
     42 O          21.9090   76.5460    0.1510 O.co2   1  UNL1       -0.5466
     43 C          23.0385   76.3649   -0.2801 C.2     1  UNL1        0.0799
@<TRIPOS>UNITY_ATOM_ATTR
41 1
charge -1
@<TRIPOS>BOND
     1     1     4    1
     2     1    24    1
     3     1     2    1
     4     1     3    2
     5    25    28    1
     6    25    24    1
     7    25    26    1
     8    25    27    2
     9     6    11    1
    10     6    12    1
    11    29    36    1
    12    29    37    1
    13     7     9    1
    14     7    13    1
    15     8    10    1
    16     8    14    1
    17     4     5    1
    18    28    36    1
    19    30    33    1
    20    30    38    1
    21    31    34    1
    22    31    39    1
    23    32    35    1
    24    32    40    1
    25    41    43   ar
    26    15    19    2
    27    42    43   ar
    28    16    22    2
    29    17    12    1
    30    17    19   ar
    31    17    20   ar
    32    18    19   ar
    33    18    22   ar
    34    18    23    1
    35     9    10    1
    36     9    11    1
    37    10    12    1
    38    11     5    1
    39    33    34    1
    40    33    35    1
    41    34    36    1
    42    35    37    1
    43    37    43    1
    44    20    21   ar
    45    21    22   ar
@<TRIPOS>MOLECULE
UDP-glaA
 43 45 0 0 0
SMALL
GASTEIGER

@<TRIPOS>ATOM
      1 P          22.4894   72.9823   -4.6251 P.3     1  UNL1        0.2189
      2 O          21.5850   74.3050   -4.4019 O.3     1  UNL1       -0.4371
      3 O          23.8695   73.0530   -4.0398 O.2     1  UNL1       -0.5170
      4 O          22.4146   72.7235   -6.2197 O.3     1  UNL1       -0.3112
      5 C          21.2078   73.0257   -6.8992 C.3     1  UNL1        0.1811
      6 O          19.0636   71.9411   -6.8794 O.3     1  UNL1       -0.3308
      7 O          20.2848   69.9061   -8.7121 O.3     1  UNL1       -0.3794
      8 O          18.8665   71.4793  -10.4296 O.3     1  UNL1       -0.3779
      9 C          20.5112   71.3140   -8.6468 C.3     1  UNL1        0.1713
     10 C          19.3320   72.0633   -9.2305 C.3     1  UNL1        0.1895
     11 C          20.4603   71.7305   -7.1827 C.3     1  UNL1        0.1764
     12 C          18.3148   71.9768   -8.1055 C.3     1  UNL1        0.2383
     13 H          21.0462   69.4703   -8.2927 H       1  UNL1        0.2105
     14 H          19.6074   71.4748  -11.0598 H       1  UNL1        0.2106
     15 O          19.0787   74.6193   -8.7451 O.2     1  UNL1       -0.2464
     16 O          14.8312   76.2299   -7.9680 O.2     1  UNL1       -0.2670
     17 N          17.4291   73.1056   -8.0792 N.ar    1  UNL1       -0.2551
     18 N          16.9632   75.4196   -8.3572 N.ar    1  UNL1       -0.2743
     19 C          17.9129   74.3912   -8.4171 C.ar    1  UNL1        0.3323
     20 C          16.0967   72.9331   -7.7213 C.ar    1  UNL1        0.0869
     21 C          15.2035   73.9237   -7.6693 C.ar    1  UNL1        0.0795
     22 C          15.6276   75.2970   -8.0065 C.ar    1  UNL1        0.2626
     23 H          17.2888   76.3526   -8.5955 H       1  UNL1        0.1734
     24 O          21.5617   71.8030   -4.0219 O.3     1  UNL1       -0.2703
     25 P          21.8866   70.6467   -2.9403 P.3     1  UNL1        0.2208
     26 O          23.4903   70.4709   -3.0555 O.3     1  UNL1       -0.4371
     27 O          21.1077   69.3784   -3.1417 O.2     1  UNL1       -0.5170
     28 O          21.6548   71.3508   -1.5069 O.3     1  UNL1       -0.2858
     29 O          23.2707   72.8139   -0.5862 O.3     1  UNL1       -0.3226
     30 O          21.0503   71.7500    2.7630 O.3     1  UNL1       -0.3794
     31 O          21.7372   69.7579    0.7467 O.3     1  UNL1       -0.3775
     32 O          23.0465   73.5663    2.1746 O.3     1  UNL1       -0.3792
     33 C          21.3228   72.0619    1.3996 C.3     1  UNL1        0.1718
     34 C          22.3176   71.0564    0.8099 C.3     1  UNL1        0.1968
     35 C          21.9006   73.4777    1.3214 C.3     1  UNL1        0.1723
     36 C          22.7483   71.4813   -0.5995 C.3     1  UNL1        0.2706
     37 C          22.3313   73.7777   -0.1127 C.3     1  UNL1        0.1830
     38 H          20.4200   72.4118    3.0950 H       1  UNL1        0.2105
     39 H          22.3983   69.1596    0.3594 H       1  UNL1        0.2106
     40 H          23.7820   73.0890    1.7546 H       1  UNL1        0.2106
     41 O          23.9931   75.0653   -1.1539 O.co2   1  UNL1       -0.5466
     42 O          22.7475   76.0862    0.4595 O.co2   1  UNL1       -0.5466
     43 C          23.0204   75.1015   -0.2115 C.2     1  UNL1        0.0799
@<TRIPOS>UNITY_ATOM_ATTR
41 1
charge -1
@<TRIPOS>BOND
     1     1     4    1
     2     1    24    1
     3     1     2    1
     4     1     3    2
     5    25    28    1
     6    25    24    1
     7    25    26    1
     8    25    27    2
     9     6    11    1
    10     6    12    1
    11    29    36    1
    12    29    37    1
    13     7     9    1
    14     7    13    1
    15     8    10    1
    16     8    14    1
    17     4     5    1
    18    28    36    1
    19    30    33    1
    20    30    38    1
    21    31    34    1
    22    31    39    1
    23    32    35    1
    24    32    40    1
    25    41    43   ar
    26    15    19    2
    27    42    43   ar
    28    16    22    2
    29    17    12    1
    30    17    19   ar
    31    17    20   ar
    32    18    19   ar
    33    18    22   ar
    34    18    23    1
    35     9    10    1
    36     9    11    1
    37    10    12    1
    38    11     5    1
    39    33    34    1
    40    33    35    1
    41    34    36    1
    42    35    37    1
    43    37    43    1
    44    20    21   ar
    45    21    22   ar
