@<TRIPOS>MOLECULE
UD2
 46 48 0 0 0
SMALL
GASTEIGER

@<TRIPOS>ATOM
      1 P          19.7000   72.7301   -0.9743 P.3     1  UNL1        0.2189
      2 O          20.4760   73.7945   -1.8996 O.3     1  UNL1       -0.4371
      3 O          19.2450   73.3939    0.2671 O.2     1  UNL1       -0.5170
      4 O          18.4257   72.1536   -1.7728 O.3     1  UNL1       -0.3112
      5 C          18.4499   70.9150   -2.4846 C.3     1  UNL1        0.1811
      6 C          16.9432   70.5684   -5.7321 C.3     1  UNL1        0.2383
      7 C          16.9318   69.1352   -5.1422 C.3     1  UNL1        0.1895
      8 O          15.8144   68.3911   -5.6317 O.3     1  UNL1       -0.3779
      9 C          16.7911   69.4091   -3.6248 C.3     1  UNL1        0.1713
     10 C          17.2704   70.8639   -3.4588 C.3     1  UNL1        0.1764
     11 O          17.6852   71.3281   -4.7534 O.3     1  UNL1       -0.3308
     12 O          15.4273   69.2820   -3.2193 O.3     1  UNL1       -0.3794
     13 H          15.7638   67.4876   -5.2916 H       1  UNL1        0.2106
     14 H          15.0557   68.4003   -3.3570 H       1  UNL1        0.2105
     15 N          17.6269   70.5877   -7.0272 N.ar    1  UNL1       -0.2551
     16 C          16.9076   70.5204   -8.1616 C.ar    1  UNL1        0.3323
     17 N          17.5095   70.5360   -9.3656 N.ar    1  UNL1       -0.2743
     18 C          18.8525   70.6219   -9.4519 C.ar    1  UNL1        0.2626
     19 C          19.6221   70.6945   -8.2659 C.ar    1  UNL1        0.0795
     20 C          18.9919   70.6811   -7.0725 C.ar    1  UNL1        0.0869
     21 O          15.6958   70.4428   -8.0989 O.2     1  UNL1       -0.2464
     22 O          19.3985   70.6365  -10.5410 O.2     1  UNL1       -0.2670
     23 H          16.9759   70.4854  -10.1736 H       1  UNL1        0.1734
     24 O          20.6926   71.5178   -0.6022 O.3     1  UNL1       -0.2703
     25 P          21.9515   71.3683    0.3908 P.3     1  UNL1        0.2208
     26 O          21.8220   69.9921    1.2172 O.3     1  UNL1       -0.4371
     27 O          23.2031   71.3537   -0.3977 O.2     1  UNL1       -0.5170
     28 O          21.9768   72.6100    1.4157 O.3     1  UNL1       -0.2865
     29 C          22.8135   73.7535    1.2326 C.3     1  UNL1        0.2611
     30 C          23.8422   73.8207    2.3639 C.3     1  UNL1        0.1582
     31 C          23.1100   73.9890    3.6988 C.3     1  UNL1        0.1625
     32 C          22.2354   75.2441    3.6343 C.3     1  UNL1        0.1686
     33 C          21.2683   75.1220    2.4537 C.3     1  UNL1        0.1760
     34 O          24.0655   74.1264    4.7531 O.3     1  UNL1       -0.3801
     35 O          23.0634   76.3948    3.4570 O.3     1  UNL1       -0.3794
     36 O          22.0122   74.9368    1.2478 O.3     1  UNL1       -0.3263
     37 H          23.6708   74.2363    5.6291 H       1  UNL1        0.2105
     38 H          22.5745   77.2281    3.4068 H       1  UNL1        0.2105
     39 C          25.9570   72.6309    2.5866 C.2     1  UNL1        0.2231
     40 C          26.7626   71.3585    2.6113 C.3     1  UNL1        0.0946
     41 N          24.6251   72.5825    2.3875 N.am    1  UNL1       -0.2994
     42 O          26.5073   73.7005    2.7459 O.2     1  UNL1       -0.2751
     43 H          24.1849   71.7277    2.2591 H       1  UNL1        0.1496
     44 C          20.4314   76.3981    2.3462 C.3     1  UNL1        0.1693
     45 O          19.2018   76.1074    1.6784 O.3     1  UNL1       -0.3794
     46 H          18.6195   76.8723    1.5746 H       1  UNL1        0.2105
@<TRIPOS>BOND
     1    29    30    1
     2    30    41    1
     3    30    31    1
     4    31    34    1
     5    31    32    1
     6    32    35    1
     7    32    33    1
     8    33    36    1
     9    33    44    1
    10    39    40    1
    11    39    42    2
    12    39    41   am
    13    41    43    1
    14    29    28    1
    15    34    37    1
    16    35    38    1
    17    29    36    1
    18    44    45    1
    19    45    46    1
    20    15     6    1
    21    15    16   ar
    22    16    21    2
    23    16    17   ar
    24    17    23    1
    25    17    18   ar
    26    18    19   ar
    27    19    20   ar
    28    15    20   ar
    29    18    22    2
    30     6     7    1
    31     6    11    1
    32     7     9    1
    33     7     8    1
    34     8    13    1
    35     9    10    1
    36     9    12    1
    37    10     5    1
    38    10    11    1
    39    12    14    1
    40     5     4    1
    41     4     1    1
    42     1     2    1
    43     1    24    1
    44     1     3    2
    45    24    25    1
    46    28    25    1
    47    25    26    1
    48    25    27    2
@<TRIPOS>MOLECULE
UD2
 46 48 0 0 0
SMALL
GASTEIGER

@<TRIPOS>ATOM
      1 P          20.7422   71.1419   -3.1894 P.3     1  UNL1        0.2189
      2 O          20.9035   70.5851   -1.6876 O.3     1  UNL1       -0.4371
      3 O          20.7933   70.0120   -4.1432 O.2     1  UNL1       -0.5170
      4 O          19.3287   71.9006   -3.3313 O.3     1  UNL1       -0.3112
      5 C          18.1701   71.5322   -2.5807 C.3     1  UNL1        0.1811
      6 C          16.8497   70.5123   -5.7671 C.3     1  UNL1        0.2383
      7 C          17.1482   69.1843   -5.0258 C.3     1  UNL1        0.1895
      8 O          16.2375   68.1595   -5.4285 O.3     1  UNL1       -0.3779
      9 C          16.9172   69.5785   -3.5464 C.3     1  UNL1        0.1713
     10 C          17.0533   71.1131   -3.5400 C.3     1  UNL1        0.1764
     11 O          17.3807   71.5192   -4.8784 O.3     1  UNL1       -0.3308
     12 O          15.6085   69.1903   -3.1253 O.3     1  UNL1       -0.3794
     13 H          16.3842   67.3091   -4.9927 H       1  UNL1        0.2106
     14 H          15.4478   68.2379   -3.1658 H       1  UNL1        0.2105
     15 N          17.5390   70.5483   -7.0588 N.ar    1  UNL1       -0.2551
     16 C          16.8221   70.5605   -8.1966 C.ar    1  UNL1        0.3323
     17 N          17.4292   70.5933   -9.3977 N.ar    1  UNL1       -0.2743
     18 C          18.7752   70.6163   -9.4774 C.ar    1  UNL1        0.2626
     19 C          19.5423   70.6049   -8.2877 C.ar    1  UNL1        0.0795
     20 C          18.9071   70.5761   -7.0972 C.ar    1  UNL1        0.0869
     21 O          15.6077   70.5402   -8.1399 O.2     1  UNL1       -0.2464
     22 O          19.3259   70.6464  -10.5639 O.2     1  UNL1       -0.2670
     23 H          16.8972   70.6004  -10.2083 H       1  UNL1        0.1734
     24 O          21.9378   72.1713   -3.5118 O.3     1  UNL1       -0.2703
     25 P          23.5193   72.1782   -3.2086 P.3     1  UNL1        0.2208
     26 O          24.0603   70.6624   -3.1487 O.3     1  UNL1       -0.4371
     27 O          24.2246   72.9109   -4.2828 O.2     1  UNL1       -0.5170
     28 O          23.7917   72.9019   -1.7963 O.3     1  UNL1       -0.2865
     29 C          22.8709   73.8175   -1.2003 C.3     1  UNL1        0.2611
     30 C          23.6441   74.9000   -0.4433 C.3     1  UNL1        0.1582
     31 C          24.4469   74.2467    0.6859 C.3     1  UNL1        0.1625
     32 C          23.4899   73.4726    1.5965 C.3     1  UNL1        0.1686
     33 C          22.7225   72.4448    0.7606 C.3     1  UNL1        0.1760
     34 O          25.1143   75.2582    1.4440 O.3     1  UNL1       -0.3801
     35 O          22.5679   74.3805    2.2023 O.3     1  UNL1       -0.3794
     36 O          22.0227   73.1146   -0.2900 O.3     1  UNL1       -0.3263
     37 H          25.6436   74.9148    2.1769 H       1  UNL1        0.2105
     38 H          21.9294   73.9576    2.7935 H       1  UNL1        0.2105
     39 C          24.3118   76.8523   -1.7396 C.2     1  UNL1        0.2231
     40 C          25.2512   77.5543   -2.6847 C.3     1  UNL1        0.0946
     41 N          24.5582   75.5821   -1.3629 N.am    1  UNL1       -0.2994
     42 O          23.3323   77.4303   -1.3169 O.2     1  UNL1       -0.2751
     43 H          25.3407   75.1192   -1.7013 H       1  UNL1        0.1496
     44 C          21.7211   71.7080    1.6521 C.3     1  UNL1        0.1693
     45 O          21.5899   70.3566    1.2064 O.3     1  UNL1       -0.3794
     46 H          20.9691   69.8287    1.7270 H       1  UNL1        0.2105
@<TRIPOS>BOND
     1    29    30    1
     2    30    41    1
     3    30    31    1
     4    31    34    1
     5    31    32    1
     6    32    35    1
     7    32    33    1
     8    33    36    1
     9    33    44    1
    10    39    40    1
    11    39    42    2
    12    39    41   am
    13    41    43    1
    14    29    28    1
    15    34    37    1
    16    35    38    1
    17    29    36    1
    18    44    45    1
    19    45    46    1
    20    15     6    1
    21    15    16   ar
    22    16    21    2
    23    16    17   ar
    24    17    23    1
    25    17    18   ar
    26    18    19   ar
    27    19    20   ar
    28    15    20   ar
    29    18    22    2
    30     6     7    1
    31     6    11    1
    32     7     9    1
    33     7     8    1
    34     8    13    1
    35     9    10    1
    36     9    12    1
    37    10     5    1
    38    10    11    1
    39    12    14    1
    40     5     4    1
    41     4     1    1
    42     1     2    1
    43     1    24    1
    44     1     3    2
    45    24    25    1
    46    28    25    1
    47    25    26    1
    48    25    27    2
@<TRIPOS>MOLECULE
UD2
 46 48 0 0 0
SMALL
GASTEIGER

@<TRIPOS>ATOM
      1 P          21.3763   71.6931    0.5179 P.3     1  UNL1        0.2189
      2 O          21.6144   70.1809    1.0157 O.3     1  UNL1       -0.4371
      3 O          20.6147   72.4372    1.5451 O.2     1  UNL1       -0.5170
      4 O          22.7988   72.4099    0.2803 O.3     1  UNL1       -0.3112
      5 C          23.9876   72.0269    0.9742 C.3     1  UNL1        0.1811
      6 C          26.0117   73.6351    3.4748 C.3     1  UNL1        0.2383
      7 C          26.0844   74.5795    2.2481 C.3     1  UNL1        0.1895
      8 O          26.2403   75.9390    2.6595 O.3     1  UNL1       -0.3779
      9 C          24.7029   74.3581    1.5849 C.3     1  UNL1        0.1713
     10 C          24.2362   72.9959    2.1327 C.3     1  UNL1        0.1764
     11 O          25.2846   72.4917    2.9753 O.3     1  UNL1       -0.3308
     12 O          23.7936   75.3906    1.9696 O.3     1  UNL1       -0.3794
     13 H          26.2914   76.5684    1.9274 H       1  UNL1        0.2106
     14 H          24.0684   76.2778    1.7015 H       1  UNL1        0.2105
     15 N          27.3560   73.2444    3.9053 N.ar    1  UNL1       -0.2551
     16 C          27.9367   72.1554    3.3707 C.ar    1  UNL1        0.3323
     17 N          29.1711   71.7729    3.7478 N.ar    1  UNL1       -0.2743
     18 C          29.8488   72.4828    4.6726 C.ar    1  UNL1        0.2626
     19 C          29.2500   73.6319    5.2428 C.ar    1  UNL1        0.0795
     20 C          28.0130   73.9947    4.8431 C.ar    1  UNL1        0.0869
     21 O          27.3374   71.5058    2.5356 O.2     1  UNL1       -0.2464
     22 O          30.9662   72.1379    5.0144 O.2     1  UNL1       -0.2670
     23 H          29.5746   70.9844    3.3532 H       1  UNL1        0.1734
     24 O          20.5458   71.6798   -0.8617 O.3     1  UNL1       -0.2703
     25 P          20.9261   71.9753   -2.3983 P.3     1  UNL1        0.2208
     26 O          21.2737   73.5381   -2.5736 O.3     1  UNL1       -0.4371
     27 O          22.1018   71.1632   -2.7808 O.2     1  UNL1       -0.5170
     28 O          19.6791   71.5933   -3.3427 O.3     1  UNL1       -0.2865
     29 C          19.5625   70.3333   -4.0062 C.3     1  UNL1        0.2611
     30 C          18.8594   70.5274   -5.3518 C.3     1  UNL1        0.1582
     31 C          17.4431   71.0567   -5.1064 C.3     1  UNL1        0.1625
     32 C          16.6948   70.0789   -4.1962 C.3     1  UNL1        0.1686
     33 C          17.4816   69.9022   -2.8948 C.3     1  UNL1        0.1760
     34 O          16.7537   71.1713   -6.3534 O.3     1  UNL1       -0.3801
     35 O          16.5677   68.8166   -4.8533 O.3     1  UNL1       -0.3794
     36 O          18.7989   69.4375   -3.1958 O.3     1  UNL1       -0.3263
     37 H          15.8487   71.5024   -6.2730 H       1  UNL1        0.2105
     38 H          16.1030   68.1465   -4.3327 H       1  UNL1        0.2105
     39 C          20.4810   71.0565   -7.0920 C.2     1  UNL1        0.2231
     40 C          21.2519   72.0471   -7.9245 C.3     1  UNL1        0.0946
     41 N          19.6091   71.4916   -6.1611 N.am    1  UNL1       -0.2994
     42 O          20.6447   69.8660   -7.2592 O.2     1  UNL1       -0.2751
     43 H          19.4786   72.4433   -6.0264 H       1  UNL1        0.1496
     44 C          16.7712   68.8809   -2.0044 C.3     1  UNL1        0.1693
     45 O          15.3573   69.0024   -2.1733 O.3     1  UNL1       -0.3794
     46 H          14.8420   68.3839   -1.6376 H       1  UNL1        0.2105
@<TRIPOS>BOND
     1    29    30    1
     2    30    41    1
     3    30    31    1
     4    31    34    1
     5    31    32    1
     6    32    35    1
     7    32    33    1
     8    33    36    1
     9    33    44    1
    10    39    40    1
    11    39    42    2
    12    39    41   am
    13    41    43    1
    14    29    28    1
    15    34    37    1
    16    35    38    1
    17    29    36    1
    18    44    45    1
    19    45    46    1
    20    15     6    1
    21    15    16   ar
    22    16    21    2
    23    16    17   ar
    24    17    23    1
    25    17    18   ar
    26    18    19   ar
    27    19    20   ar
    28    15    20   ar
    29    18    22    2
    30     6     7    1
    31     6    11    1
    32     7     9    1
    33     7     8    1
    34     8    13    1
    35     9    10    1
    36     9    12    1
    37    10     5    1
    38    10    11    1
    39    12    14    1
    40     5     4    1
    41     4     1    1
    42     1     2    1
    43     1    24    1
    44     1     3    2
    45    24    25    1
    46    28    25    1
    47    25    26    1
    48    25    27    2
@<TRIPOS>MOLECULE
UD2
 46 48 0 0 0
SMALL
GASTEIGER

@<TRIPOS>ATOM
      1 P          21.9095   71.5066   -0.0928 P.3     1  UNL1        0.2189
      2 O          21.6498   70.2798    0.9165 O.3     1  UNL1       -0.4371
      3 O          20.7153   72.3793   -0.1271 O.2     1  UNL1       -0.5170
      4 O          23.1810   72.3565    0.4118 O.3     1  UNL1       -0.3112
      5 C          24.0816   71.8855    1.4160 C.3     1  UNL1        0.1811
      6 C          26.0034   73.8697    3.7196 C.3     1  UNL1        0.2383
      7 C          25.9677   74.7095    2.4175 C.3     1  UNL1        0.1895
      8 O          26.0102   76.1073    2.7108 O.3     1  UNL1       -0.3779
      9 C          24.5987   74.3135    1.8124 C.3     1  UNL1        0.1713
     10 C          24.2657   72.9672    2.4833 C.3     1  UNL1        0.1764
     11 O          25.3712   72.6292    3.3361 O.3     1  UNL1       -0.3308
     12 O          23.6089   75.2918    2.1349 O.3     1  UNL1       -0.3794
     13 H          25.9908   76.6745    1.9281 H       1  UNL1        0.2106
     14 H          23.7984   76.1736    1.7871 H       1  UNL1        0.2105
     15 N          27.3852   73.6351    4.1445 N.ar    1  UNL1       -0.2551
     16 C          27.8861   74.3178    5.1895 C.ar    1  UNL1        0.3323
     17 N          29.1527   74.1226    5.6015 N.ar    1  UNL1       -0.2743
     18 C          29.9427   73.2316    4.9686 C.ar    1  UNL1        0.2626
     19 C          29.4281   72.5053    3.8678 C.ar    1  UNL1        0.0795
     20 C          28.1533   72.7181    3.4789 C.ar    1  UNL1        0.0869
     21 O          27.1852   75.1243    5.7697 O.2     1  UNL1       -0.2464
     22 O          31.0891   73.0537    5.3408 O.2     1  UNL1       -0.2670
     23 H          29.4984   74.6241    6.3559 H       1  UNL1        0.1734
     24 O          22.1992   70.9346   -1.5700 O.3     1  UNL1       -0.2703
     25 P          23.0103   71.4908   -2.8450 P.3     1  UNL1        0.2208
     26 O          23.3012   73.0630   -2.6512 O.3     1  UNL1       -0.4371
     27 O          24.2929   70.7642   -2.9694 O.2     1  UNL1       -0.5170
     28 O          22.1346   71.2669   -4.1775 O.3     1  UNL1       -0.2865
     29 C          21.0507   72.1203   -4.5492 C.3     1  UNL1        0.2611
     30 C          19.9884   71.3044   -5.2899 C.3     1  UNL1        0.1582
     31 C          20.5971   70.7384   -6.5766 C.3     1  UNL1        0.1625
     32 C          21.1372   71.8935   -7.4241 C.3     1  UNL1        0.1686
     33 C          22.1555   72.6869   -6.6009 C.3     1  UNL1        0.1760
     34 O          19.5919   70.0362   -7.3113 O.3     1  UNL1       -0.3801
     35 O          20.0596   72.7503   -7.8061 O.3     1  UNL1       -0.3794
     36 O          21.5339   73.1587   -5.4039 O.3     1  UNL1       -0.3263
     37 H          19.9084   69.6499   -8.1394 H       1  UNL1        0.2105
     38 H          20.3297   73.5063   -8.3461 H       1  UNL1        0.2105
     39 C          18.2402   70.1226   -4.0713 C.2     1  UNL1        0.2231
     40 C          17.7730   68.9904   -3.1947 C.3     1  UNL1        0.0946
     41 N          19.5348   70.2028   -4.4370 N.am    1  UNL1       -0.2994
     42 O          17.4509   70.9633   -4.4487 O.2     1  UNL1       -0.2751
     43 H          20.1664   69.5315   -4.1347 H       1  UNL1        0.1496
     44 C          22.6558   73.8782   -7.4200 C.3     1  UNL1        0.1693
     45 O          23.4248   73.4061   -8.5282 O.3     1  UNL1       -0.3794
     46 H          23.7748   74.1088   -9.0926 H       1  UNL1        0.2105
@<TRIPOS>BOND
     1    29    30    1
     2    30    41    1
     3    30    31    1
     4    31    34    1
     5    31    32    1
     6    32    35    1
     7    32    33    1
     8    33    36    1
     9    33    44    1
    10    39    40    1
    11    39    42    2
    12    39    41   am
    13    41    43    1
    14    29    28    1
    15    34    37    1
    16    35    38    1
    17    29    36    1
    18    44    45    1
    19    45    46    1
    20    15     6    1
    21    15    16   ar
    22    16    21    2
    23    16    17   ar
    24    17    23    1
    25    17    18   ar
    26    18    19   ar
    27    19    20   ar
    28    15    20   ar
    29    18    22    2
    30     6     7    1
    31     6    11    1
    32     7     9    1
    33     7     8    1
    34     8    13    1
    35     9    10    1
    36     9    12    1
    37    10     5    1
    38    10    11    1
    39    12    14    1
    40     5     4    1
    41     4     1    1
    42     1     2    1
    43     1    24    1
    44     1     3    2
    45    24    25    1
    46    28    25    1
    47    25    26    1
    48    25    27    2
@<TRIPOS>MOLECULE
UD2
 46 48 0 0 0
SMALL
GASTEIGER

@<TRIPOS>ATOM
      1 P          21.0736   71.8354   -2.4921 P.3     1  UNL1        0.2189
      2 O          22.1228   71.1643   -3.5119 O.3     1  UNL1       -0.4371
      3 O          21.4151   73.2620   -2.2998 O.2     1  UNL1       -0.5170
      4 O          19.5860   71.7165   -3.0976 O.3     1  UNL1       -0.3112
      5 C          18.5538   70.9471   -2.4779 C.3     1  UNL1        0.1811
      6 C          16.9497   70.5499   -5.6725 C.3     1  UNL1        0.2383
      7 C          16.9800   69.1216   -5.0714 C.3     1  UNL1        0.1895
      8 O          15.8596   68.3560   -5.5188 O.3     1  UNL1       -0.3779
      9 C          16.8836   69.4059   -3.5524 C.3     1  UNL1        0.1713
     10 C          17.3446   70.8694   -3.4132 C.3     1  UNL1        0.1764
     11 O          17.7103   71.3292   -4.7240 O.3     1  UNL1       -0.3308
     12 O          15.5357   69.2607   -3.1022 O.3     1  UNL1       -0.3794
     13 H          15.8344   67.4546   -5.1702 H       1  UNL1        0.2106
     14 H          15.1740   68.3722   -3.2210 H       1  UNL1        0.2105
     15 N          17.5911   70.5692   -6.9890 N.ar    1  UNL1       -0.2551
     16 C          16.8383   70.4660   -8.0987 C.ar    1  UNL1        0.3323
     17 N          17.4011   70.4807   -9.3215 N.ar    1  UNL1       -0.2743
     18 C          18.7379   70.6018   -9.4520 C.ar    1  UNL1        0.2626
     19 C          19.5423   70.7123   -8.2924 C.ar    1  UNL1        0.0795
     20 C          18.9509   70.6989   -7.0793 C.ar    1  UNL1        0.0869
     21 O          15.6317   70.3565   -7.9961 O.2     1  UNL1       -0.2464
     22 O          19.2485   70.6156  -10.5582 O.2     1  UNL1       -0.2670
     23 H          16.8438   70.4041  -10.1112 H       1  UNL1        0.1734
     24 O          21.1382   71.0720   -1.0756 O.3     1  UNL1       -0.2703
     25 P          22.1323   71.1446    0.1890 P.3     1  UNL1        0.2208
     26 O          21.7767   69.9589    1.2193 O.3     1  UNL1       -0.4371
     27 O          23.5297   70.9938   -0.2724 O.2     1  UNL1       -0.5170
     28 O          21.9604   72.5659    0.9258 O.3     1  UNL1       -0.2865
     29 C          20.8969   72.8464    1.8377 C.3     1  UNL1        0.2611
     30 C          20.3763   74.2652    1.5952 C.3     1  UNL1        0.1582
     31 C          21.5019   75.2669    1.8710 C.3     1  UNL1        0.1625
     32 C          22.0059   75.0705    3.3034 C.3     1  UNL1        0.1686
     33 C          22.4638   73.6203    3.4801 C.3     1  UNL1        0.1760
     34 O          21.0040   76.5981    1.7181 O.3     1  UNL1       -0.3801
     35 O          20.9508   75.3543    4.2241 O.3     1  UNL1       -0.3794
     36 O          21.3794   72.7400    3.1787 O.3     1  UNL1       -0.3263
     37 H          21.6652   77.2856    1.8776 H       1  UNL1        0.2105
     38 H          21.1997   75.2494    5.1531 H       1  UNL1        0.2105
     39 C          18.6211   74.4307   -0.0869 C.2     1  UNL1        0.2231
     40 C          18.1681   74.5631   -1.5173 C.3     1  UNL1        0.0946
     41 N          19.9365   74.3938    0.2036 N.am    1  UNL1       -0.2994
     42 O          17.8015   74.3572    0.8048 O.2     1  UNL1       -0.2751
     43 H          20.5921   74.4515   -0.5091 H       1  UNL1        0.1496
     44 C          22.9132   73.4003    4.9258 C.3     1  UNL1        0.1693
     45 O          21.7828   73.0561    5.7296 O.3     1  UNL1       -0.3794
     46 H          21.9938   72.9018    6.6606 H       1  UNL1        0.2105
@<TRIPOS>BOND
     1    29    30    1
     2    30    41    1
     3    30    31    1
     4    31    34    1
     5    31    32    1
     6    32    35    1
     7    32    33    1
     8    33    36    1
     9    33    44    1
    10    39    40    1
    11    39    42    2
    12    39    41   am
    13    41    43    1
    14    29    28    1
    15    34    37    1
    16    35    38    1
    17    29    36    1
    18    44    45    1
    19    45    46    1
    20    15     6    1
    21    15    16   ar
    22    16    21    2
    23    16    17   ar
    24    17    23    1
    25    17    18   ar
    26    18    19   ar
    27    19    20   ar
    28    15    20   ar
    29    18    22    2
    30     6     7    1
    31     6    11    1
    32     7     9    1
    33     7     8    1
    34     8    13    1
    35     9    10    1
    36     9    12    1
    37    10     5    1
    38    10    11    1
    39    12    14    1
    40     5     4    1
    41     4     1    1
    42     1     2    1
    43     1    24    1
    44     1     3    2
    45    24    25    1
    46    28    25    1
    47    25    26    1
    48    25    27    2
@<TRIPOS>MOLECULE
UD2
 46 48 0 0 0
SMALL
GASTEIGER

@<TRIPOS>ATOM
      1 P          22.5200   71.5230   -2.6820 P.3     1  UNL1        0.2189
      2 O          22.2980   73.1168   -2.7258 O.3     1  UNL1       -0.4371
      3 O          23.8412   71.1922   -3.2600 O.2     1  UNL1       -0.5170
      4 O          22.4597   71.0147   -1.1551 O.3     1  UNL1       -0.3112
      5 C          21.2487   70.9700   -0.3981 C.3     1  UNL1        0.1811
      6 C          23.2475   72.3463    2.2565 C.3     1  UNL1        0.2383
      7 C          22.9736   73.5452    1.3132 C.3     1  UNL1        0.1895
      8 O          22.9219   74.7702    2.0470 O.3     1  UNL1       -0.3779
      9 C          21.5830   73.1905    0.7318 C.3     1  UNL1        0.1713
     10 C          21.4619   71.6697    0.9464 C.3     1  UNL1        0.1764
     11 O          22.6908   71.2223    1.5408 O.3     1  UNL1       -0.3308
     12 O          20.5541   73.8800    1.4436 O.3     1  UNL1       -0.3794
     13 H          22.7534   75.5496    1.5004 H       1  UNL1        0.2106
     14 H          20.6165   74.8432    1.3917 H       1  UNL1        0.2105
     15 N          24.6870   72.1678    2.4589 N.ar    1  UNL1       -0.2551
     16 C          25.2610   70.9890    2.1592 C.ar    1  UNL1        0.3323
     17 N          26.5816   70.7967    2.3354 N.ar    1  UNL1       -0.2743
     18 C          27.3540   71.7918    2.8170 C.ar    1  UNL1        0.2626
     19 C          26.7633   73.0382    3.1357 C.ar    1  UNL1        0.0795
     20 C          25.4375   73.2043    2.9450 C.ar    1  UNL1        0.0869
     21 O          24.5768   70.0829    1.7240 O.2     1  UNL1       -0.2464
     22 O          28.5496   71.6192    2.9765 O.2     1  UNL1       -0.2670
     23 H          26.9792   69.9402    2.1153 H       1  UNL1        0.1734
     24 O          21.3635   70.7961   -3.5349 O.3     1  UNL1       -0.2703
     25 P          19.7569   70.9016   -3.5569 P.3     1  UNL1        0.2208
     26 O          19.1356   69.8413   -2.5160 O.3     1  UNL1       -0.4371
     27 O          19.3467   72.2694   -3.1706 O.2     1  UNL1       -0.5170
     28 O          19.2181   70.5778   -5.0393 O.3     1  UNL1       -0.2865
     29 C          18.4552   71.5074   -5.8107 C.3     1  UNL1        0.2611
     30 C          16.9949   71.0517   -5.8625 C.3     1  UNL1        0.1582
     31 C          16.9180   69.6920   -6.5637 C.3     1  UNL1        0.1625
     32 C          17.5381   69.8130   -7.9584 C.3     1  UNL1        0.1686
     33 C          18.9779   70.3166   -7.8257 C.3     1  UNL1        0.1760
     34 O          15.5505   69.2928   -6.6820 O.3     1  UNL1       -0.3801
     35 O          16.7787   70.7368   -8.7403 O.3     1  UNL1       -0.3794
     36 O          18.9812   71.5692   -7.1380 O.3     1  UNL1       -0.3263
     37 H          15.4270   68.4380   -7.1170 H       1  UNL1        0.2105
     38 H          17.1160   70.8635   -9.6381 H       1  UNL1        0.2105
     39 C          16.3553   69.7152   -3.9280 C.2     1  UNL1        0.2231
     40 C          15.8177   69.5893   -2.5267 C.3     1  UNL1        0.0946
     41 N          16.4716   70.9301   -4.4995 N.am    1  UNL1       -0.2994
     42 O          16.6840   68.7224   -4.5433 O.2     1  UNL1       -0.2751
     43 H          16.2080   71.7240   -4.0083 H       1  UNL1        0.1496
     44 C          19.5851   70.4972   -9.2182 C.3     1  UNL1        0.1693
     45 O          18.7420   71.3460   -9.9999 O.3     1  UNL1       -0.3794
     46 H          19.0660   71.5047  -10.8970 H       1  UNL1        0.2105
@<TRIPOS>BOND
     1    29    30    1
     2    30    41    1
     3    30    31    1
     4    31    34    1
     5    31    32    1
     6    32    35    1
     7    32    33    1
     8    33    36    1
     9    33    44    1
    10    39    40    1
    11    39    42    2
    12    39    41   am
    13    41    43    1
    14    29    28    1
    15    34    37    1
    16    35    38    1
    17    29    36    1
    18    44    45    1
    19    45    46    1
    20    15     6    1
    21    15    16   ar
    22    16    21    2
    23    16    17   ar
    24    17    23    1
    25    17    18   ar
    26    18    19   ar
    27    19    20   ar
    28    15    20   ar
    29    18    22    2
    30     6     7    1
    31     6    11    1
    32     7     9    1
    33     7     8    1
    34     8    13    1
    35     9    10    1
    36     9    12    1
    37    10     5    1
    38    10    11    1
    39    12    14    1
    40     5     4    1
    41     4     1    1
    42     1     2    1
    43     1    24    1
    44     1     3    2
    45    24    25    1
    46    28    25    1
    47    25    26    1
    48    25    27    2
@<TRIPOS>MOLECULE
UD2
 46 48 0 0 0
SMALL
GASTEIGER

@<TRIPOS>ATOM
      1 P          23.3344   72.2448   -3.2429 P.3     1  UNL1        0.2189
      2 O          24.3135   72.7393   -4.4211 O.3     1  UNL1       -0.4371
      3 O          23.6648   70.8493   -2.8791 O.2     1  UNL1       -0.5170
      4 O          23.5221   73.1939   -1.9555 O.3     1  UNL1       -0.3112
      5 C          22.6927   73.1034   -0.7956 C.3     1  UNL1        0.1811
      6 C          24.6722   71.8516    1.9340 C.3     1  UNL1        0.2383
      7 C          23.2870   72.1499    2.5619 C.3     1  UNL1        0.1895
      8 O          23.0143   71.2570    3.6437 O.3     1  UNL1       -0.3779
      9 C          22.3284   71.8879    1.3745 C.3     1  UNL1        0.1713
     10 C          23.2287   72.0086    0.1301 C.3     1  UNL1        0.1764
     11 O          24.5456   72.3562    0.5868 O.3     1  UNL1       -0.3308
     12 O          21.7708   70.5758    1.4636 O.3     1  UNL1       -0.3794
     13 H          22.1590   71.4042    4.0695 H       1  UNL1        0.2106
     14 H          21.2422   70.4254    2.2589 H       1  UNL1        0.2105
     15 N          25.7295   72.5640    2.6549 N.ar    1  UNL1       -0.2551
     16 C          26.9239   71.9742    2.8399 C.ar    1  UNL1        0.3323
     17 N          27.9137   72.6054    3.4989 N.ar    1  UNL1       -0.2743
     18 C          27.7205   73.8484    3.9849 C.ar    1  UNL1        0.2626
     19 C          26.4684   74.4816    3.7965 C.ar    1  UNL1        0.0795
     20 C          25.4955   73.8270    3.1284 C.ar    1  UNL1        0.0869
     21 O          27.1123   70.8537    2.4069 O.2     1  UNL1       -0.2464
     22 O          28.6156   74.4209    4.5812 O.2     1  UNL1       -0.2670
     23 H          28.7684   72.1652    3.6245 H       1  UNL1        0.1734
     24 O          21.8068   72.3210   -3.7468 O.3     1  UNL1       -0.2703
     25 P          20.4125   71.7495   -3.1791 P.3     1  UNL1        0.2208
     26 O          20.7061   70.5517   -2.1433 O.3     1  UNL1       -0.4371
     27 O          19.6810   72.8323   -2.4856 O.2     1  UNL1       -0.5170
     28 O          19.5218   71.1966   -4.4012 O.3     1  UNL1       -0.2865
     29 C          18.7515   72.0486   -5.2508 C.3     1  UNL1        0.2611
     30 C          17.3447   71.4688   -5.4165 C.3     1  UNL1        0.1582
     31 C          17.4430   70.0996   -6.0964 C.3     1  UNL1        0.1625
     32 C          18.1671   70.2578   -7.4362 C.3     1  UNL1        0.1686
     33 C          19.5426   70.8844   -7.1926 C.3     1  UNL1        0.1760
     34 O          16.1292   69.5833   -6.3217 O.3     1  UNL1       -0.3801
     35 O          17.4016   71.1041   -8.2959 O.3     1  UNL1       -0.3794
     36 O          19.3815   72.1404   -6.5303 O.3     1  UNL1       -0.3263
     37 H          16.1159   68.7162   -6.7496 H       1  UNL1        0.2105
     38 H          17.8022   71.2492   -9.1645 H       1  UNL1        0.2105
     39 C          15.5847   71.9856   -3.8124 C.2     1  UNL1        0.2231
     40 C          14.9411   71.8310   -2.4595 C.3     1  UNL1        0.0946
     41 N          16.7194   71.3180   -4.1001 N.am    1  UNL1       -0.2994
     42 O          15.0816   72.7117   -4.6442 O.2     1  UNL1       -0.2751
     43 H          17.1225   70.7381   -3.4351 H       1  UNL1        0.1496
     44 C          20.2487   71.1008   -8.5323 C.3     1  UNL1        0.1693
     45 O          21.3182   72.0335   -8.3628 O.3     1  UNL1       -0.3794
     46 H          21.8112   72.2190   -9.1736 H       1  UNL1        0.2105
@<TRIPOS>BOND
     1    29    30    1
     2    30    41    1
     3    30    31    1
     4    31    34    1
     5    31    32    1
     6    32    35    1
     7    32    33    1
     8    33    36    1
     9    33    44    1
    10    39    40    1
    11    39    42    2
    12    39    41   am
    13    41    43    1
    14    29    28    1
    15    34    37    1
    16    35    38    1
    17    29    36    1
    18    44    45    1
    19    45    46    1
    20    15     6    1
    21    15    16   ar
    22    16    21    2
    23    16    17   ar
    24    17    23    1
    25    17    18   ar
    26    18    19   ar
    27    19    20   ar
    28    15    20   ar
    29    18    22    2
    30     6     7    1
    31     6    11    1
    32     7     9    1
    33     7     8    1
    34     8    13    1
    35     9    10    1
    36     9    12    1
    37    10     5    1
    38    10    11    1
    39    12    14    1
    40     5     4    1
    41     4     1    1
    42     1     2    1
    43     1    24    1
    44     1     3    2
    45    24    25    1
    46    28    25    1
    47    25    26    1
    48    25    27    2
@<TRIPOS>MOLECULE
UD2
 46 48 0 0 0
SMALL
GASTEIGER

@<TRIPOS>ATOM
      1 P          19.6629   73.5642   -2.9805 P.3     1  UNL1        0.2189
      2 O          19.8326   74.2688   -4.4179 O.3     1  UNL1       -0.4371
      3 O          19.9350   74.5504   -1.9118 O.2     1  UNL1       -0.5170
      4 O          18.1584   73.0099   -2.8290 O.3     1  UNL1       -0.3112
      5 C          17.8569   71.6314   -2.6050 C.3     1  UNL1        0.1811
      6 C          16.7499   70.5227   -5.8425 C.3     1  UNL1        0.2383
      7 C          17.0365   69.2159   -5.0601 C.3     1  UNL1        0.1895
      8 O          16.1758   68.1616   -5.4953 O.3     1  UNL1       -0.3779
      9 C          16.7099   69.6301   -3.6043 C.3     1  UNL1        0.1713
     10 C          16.8086   71.1675   -3.6192 C.3     1  UNL1        0.1764
     11 O          17.2037   71.5581   -4.9439 O.3     1  UNL1       -0.3308
     12 O          15.3886   69.2166   -3.2524 O.3     1  UNL1       -0.3794
     13 H          16.3172   67.3229   -5.0356 H       1  UNL1        0.2106
     14 H          15.2535   68.2599   -3.2841 H       1  UNL1        0.2105
     15 N          17.5125   70.5532   -7.0926 N.ar    1  UNL1       -0.2551
     16 C          16.8626   70.6206   -8.2681 C.ar    1  UNL1        0.3323
     17 N          17.5379   70.6498   -9.4323 N.ar    1  UNL1       -0.2743
     18 C          18.8859   70.6135   -9.4361 C.ar    1  UNL1        0.2626
     19 C          19.5829   70.5435   -8.2059 C.ar    1  UNL1        0.0795
     20 C          18.8805   70.5198   -7.0537 C.ar    1  UNL1        0.0869
     21 O          15.6473   70.6542   -8.2798 O.2     1  UNL1       -0.2464
     22 O          19.4983   70.6403  -10.4891 O.2     1  UNL1       -0.2670
     23 H          17.0537   70.6973  -10.2711 H       1  UNL1        0.1734
     24 O          20.7005   72.3388   -2.8573 O.3     1  UNL1       -0.2703
     25 P          21.4810   71.6544   -1.6263 P.3     1  UNL1        0.2208
     26 O          20.4645   70.7150   -0.8028 O.3     1  UNL1       -0.4371
     27 O          22.5986   70.8355   -2.1445 O.2     1  UNL1       -0.5170
     28 O          22.0602   72.8002   -0.6546 O.3     1  UNL1       -0.2865
     29 C          21.8920   72.7761    0.7640 C.3     1  UNL1        0.2611
     30 C          22.1025   74.1835    1.3278 C.3     1  UNL1        0.1582
     31 C          23.5383   74.6311    1.0371 C.3     1  UNL1        0.1625
     32 C          24.5108   73.6132    1.6393 C.3     1  UNL1        0.1686
     33 C          24.2074   72.2275    1.0633 C.3     1  UNL1        0.1760
     34 O          23.7661   75.9144    1.6241 O.3     1  UNL1       -0.3801
     35 O          24.3546   73.5855    3.0592 O.3     1  UNL1       -0.3794
     36 O          22.8483   71.8849    1.3416 O.3     1  UNL1       -0.3263
     37 H          24.6573   76.2605    1.4784 H       1  UNL1        0.2105
     38 H          24.9407   72.9601    3.5079 H       1  UNL1        0.2105
     39 C          20.5294   76.0414    1.4335 C.2     1  UNL1        0.2231
     40 C          19.5631   76.9950    0.7813 C.3     1  UNL1        0.0946
     41 N          21.1625   75.1106    0.6927 N.am    1  UNL1       -0.2994
     42 O          20.7383   76.1107    2.6267 O.2     1  UNL1       -0.2751
     43 H          20.9951   75.0542   -0.2612 H       1  UNL1        0.1496
     44 C          25.1357   71.1945    1.7048 C.3     1  UNL1        0.1693
     45 O          25.5340   70.2359    0.7225 O.3     1  UNL1       -0.3794
     46 H          26.1251   69.5488    1.0595 H       1  UNL1        0.2105
@<TRIPOS>BOND
     1    29    30    1
     2    30    41    1
     3    30    31    1
     4    31    34    1
     5    31    32    1
     6    32    35    1
     7    32    33    1
     8    33    36    1
     9    33    44    1
    10    39    40    1
    11    39    42    2
    12    39    41   am
    13    41    43    1
    14    29    28    1
    15    34    37    1
    16    35    38    1
    17    29    36    1
    18    44    45    1
    19    45    46    1
    20    15     6    1
    21    15    16   ar
    22    16    21    2
    23    16    17   ar
    24    17    23    1
    25    17    18   ar
    26    18    19   ar
    27    19    20   ar
    28    15    20   ar
    29    18    22    2
    30     6     7    1
    31     6    11    1
    32     7     9    1
    33     7     8    1
    34     8    13    1
    35     9    10    1
    36     9    12    1
    37    10     5    1
    38    10    11    1
    39    12    14    1
    40     5     4    1
    41     4     1    1
    42     1     2    1
    43     1    24    1
    44     1     3    2
    45    24    25    1
    46    28    25    1
    47    25    26    1
    48    25    27    2
@<TRIPOS>MOLECULE
UD2
 46 48 0 0 0
SMALL
GASTEIGER

@<TRIPOS>ATOM
      1 P          22.7367   73.5128   -4.5603 P.3     1  UNL1        0.2189
      2 O          23.5572   74.7198   -5.2395 O.3     1  UNL1       -0.4371
      3 O          23.4034   72.2282   -4.8669 O.2     1  UNL1       -0.5170
      4 O          22.6909   73.7264   -2.9646 O.3     1  UNL1       -0.3112
      5 C          21.7984   74.6430   -2.3285 C.3     1  UNL1        0.1811
      6 C          19.4877   72.0755   -1.3259 C.3     1  UNL1        0.2383
      7 C          20.8873   71.4678   -1.0543 C.3     1  UNL1        0.1895
      8 O          20.8447   70.5623    0.0502 O.3     1  UNL1       -0.3779
      9 C          21.7252   72.7229   -0.7076 C.3     1  UNL1        0.1713
     10 C          20.9271   73.8895   -1.3205 C.3     1  UNL1        0.1764
     11 O          19.7866   73.3244   -1.9865 O.3     1  UNL1       -0.3308
     12 O          21.8297   72.8774    0.7087 O.3     1  UNL1       -0.3794
     13 H          21.6966   70.1556    0.2589 H       1  UNL1        0.2106
     14 H          22.2719   72.1419    1.1537 H       1  UNL1        0.2105
     15 N          18.7071   71.2009   -2.2038 N.ar    1  UNL1       -0.2551
     16 C          17.3635   71.2537   -2.1735 C.ar    1  UNL1        0.3323
     17 N          16.6210   70.4614   -2.9692 N.ar    1  UNL1       -0.2743
     18 C          17.2185   69.5982   -3.8156 C.ar    1  UNL1        0.2626
     19 C          18.6320   69.5329   -3.8586 C.ar    1  UNL1        0.0795
     20 C          19.3515   70.3419   -3.0528 C.ar    1  UNL1        0.0869
     21 O          16.8113   72.0274   -1.4154 O.2     1  UNL1       -0.2464
     22 O          16.5476   68.8808   -4.5366 O.2     1  UNL1       -0.2670
     23 H          15.6533   70.5113   -2.9338 H       1  UNL1        0.1734
     24 O          21.2349   73.4906   -5.1413 O.3     1  UNL1       -0.2703
     25 P          20.5989   73.7110   -6.6041 P.3     1  UNL1        0.2208
     26 O          21.1190   75.1097   -7.2097 O.3     1  UNL1       -0.4371
     27 O          21.0129   72.6044   -7.4942 O.2     1  UNL1       -0.5170
     28 O          18.9928   73.7382   -6.4923 O.3     1  UNL1       -0.2865
     29 C          18.2228   72.6119   -6.0685 C.3     1  UNL1        0.2611
     30 C          17.2994   72.1669   -7.2052 C.3     1  UNL1        0.1582
     31 C          16.3232   73.3012   -7.5321 C.3     1  UNL1        0.1625
     32 C          15.5472   73.6733   -6.2658 C.3     1  UNL1        0.1686
     33 C          16.5384   74.0603   -5.1650 C.3     1  UNL1        0.1760
     34 O          15.4094   72.8680   -8.5423 O.3     1  UNL1       -0.3801
     35 O          14.7688   72.5547   -5.8366 O.3     1  UNL1       -0.3794
     36 O          17.4364   72.9737   -4.9313 O.3     1  UNL1       -0.3263
     37 H          14.7614   73.5382   -8.7995 H       1  UNL1        0.2105
     38 H          14.2503   72.7193   -5.0366 H       1  UNL1        0.2105
     39 C          18.3897   70.5706   -8.6887 C.2     1  UNL1        0.2231
     40 C          19.2124   70.2467   -9.9080 C.3     1  UNL1        0.0946
     41 N          18.0999   71.8527   -8.3913 N.am    1  UNL1       -0.2994
     42 O          17.9873   69.6770   -7.9733 O.2     1  UNL1       -0.2751
     43 H          18.4223   72.5675   -8.9624 H       1  UNL1        0.1496
     44 C          15.7735   74.3761   -3.8783 C.3     1  UNL1        0.1693
     45 O          15.0850   73.2055   -3.4331 O.3     1  UNL1       -0.3794
     46 H          14.5775   73.3324   -2.6199 H       1  UNL1        0.2105
@<TRIPOS>BOND
     1    29    30    1
     2    30    41    1
     3    30    31    1
     4    31    34    1
     5    31    32    1
     6    32    35    1
     7    32    33    1
     8    33    36    1
     9    33    44    1
    10    39    40    1
    11    39    42    2
    12    39    41   am
    13    41    43    1
    14    29    28    1
    15    34    37    1
    16    35    38    1
    17    29    36    1
    18    44    45    1
    19    45    46    1
    20    15     6    1
    21    15    16   ar
    22    16    21    2
    23    16    17   ar
    24    17    23    1
    25    17    18   ar
    26    18    19   ar
    27    19    20   ar
    28    15    20   ar
    29    18    22    2
    30     6     7    1
    31     6    11    1
    32     7     9    1
    33     7     8    1
    34     8    13    1
    35     9    10    1
    36     9    12    1
    37    10     5    1
    38    10    11    1
    39    12    14    1
    40     5     4    1
    41     4     1    1
    42     1     2    1
    43     1    24    1
    44     1     3    2
    45    24    25    1
    46    28    25    1
    47    25    26    1
    48    25    27    2
@<TRIPOS>MOLECULE
UD2
 46 48 0 0 0
SMALL
GASTEIGER

@<TRIPOS>ATOM
      1 P          22.7583   74.3658   -1.6915 P.3     1  UNL1        0.2189
      2 O          21.5503   74.9865   -2.5557 O.3     1  UNL1       -0.4371
      3 O          24.0173   75.0660   -2.0284 O.2     1  UNL1       -0.5170
      4 O          22.4452   74.5497   -0.1225 O.3     1  UNL1       -0.3112
      5 C          21.2255   74.1164    0.4826 C.3     1  UNL1        0.1811
      6 C          23.2774   71.9812    2.5239 C.3     1  UNL1        0.2383
      7 C          22.5883   72.9375    3.5302 C.3     1  UNL1        0.1895
      8 O          22.3859   72.2932    4.7895 O.3     1  UNL1       -0.3779
      9 C          21.2360   73.2242    2.8327 C.3     1  UNL1        0.1713
     10 C          21.4969   72.8864    1.3524 C.3     1  UNL1        0.1764
     11 O          22.8761   72.5015    1.2379 O.3     1  UNL1       -0.3308
     12 O          20.2118   72.3827    3.3652 O.3     1  UNL1       -0.3794
     13 H          21.9582   72.8513    5.4529 H       1  UNL1        0.2106
     14 H          20.0468   72.5117    4.3090 H       1  UNL1        0.2105
     15 N          24.7334   72.0381    2.6724 N.ar    1  UNL1       -0.2551
     16 C          25.4721   70.9423    2.4225 C.ar    1  UNL1        0.3323
     17 N          26.8119   70.9659    2.5510 N.ar    1  UNL1       -0.2743
     18 C          27.4372   72.0979    2.9333 C.ar    1  UNL1        0.2626
     19 C          26.6721   73.2591    3.1985 C.ar    1  UNL1        0.0795
     20 C          25.3308   73.2081    3.0575 C.ar    1  UNL1        0.0869
     21 O          24.9217   69.9147    2.0769 O.2     1  UNL1       -0.2464
     22 O          28.6499   72.1207    3.0495 O.2     1  UNL1       -0.2670
     23 H          27.3293   70.1666    2.3681 H       1  UNL1        0.1734
     24 O          22.9091   72.7982   -2.0278 O.3     1  UNL1       -0.2703
     25 P          23.4584   71.9753   -3.2982 P.3     1  UNL1        0.2208
     26 O          24.4053   72.9287   -4.1860 O.3     1  UNL1       -0.4371
     27 O          24.2356   70.8066   -2.8307 O.2     1  UNL1       -0.5170
     28 O          22.2156   71.4720   -4.1898 O.3     1  UNL1       -0.2865
     29 C          21.1007   72.3054   -4.5118 C.3     1  UNL1        0.2611
     30 C          19.9781   71.4506   -5.1050 C.3     1  UNL1        0.1582
     31 C          20.4699   70.8086   -6.4059 C.3     1  UNL1        0.1625
     32 C          20.9290   71.9106   -7.3647 C.3     1  UNL1        0.1686
     33 C          22.0152   72.7478   -6.6842 C.3     1  UNL1        0.1760
     34 O          19.4044   70.0676   -7.0050 O.3     1  UNL1       -0.3801
     35 O          19.8193   72.7467   -7.6977 O.3     1  UNL1       -0.3794
     36 O          21.5027   73.2906   -5.4657 O.3     1  UNL1       -0.3263
     37 H          19.6461   69.6326   -7.8342 H       1  UNL1        0.2105
     38 H          20.0380   73.4691   -8.3030 H       1  UNL1        0.2105
     39 C          18.3075   70.0940   -3.9621 C.2     1  UNL1        0.2231
     40 C          17.9237   69.0161   -2.9826 C.3     1  UNL1        0.0946
     41 N          19.6056   70.4021   -4.1519 N.am    1  UNL1       -0.2994
     42 O          17.4477   70.6856   -4.5809 O.2     1  UNL1       -0.2751
     43 H          20.2932   69.9301   -3.6566 H       1  UNL1        0.1496
     44 C          22.4370   73.8878   -7.6131 C.3     1  UNL1        0.1693
     45 O          23.3965   73.4049   -8.5558 O.3     1  UNL1       -0.3794
     46 H          23.7093   74.0756   -9.1781 H       1  UNL1        0.2105
@<TRIPOS>BOND
     1    29    30    1
     2    30    41    1
     3    30    31    1
     4    31    34    1
     5    31    32    1
     6    32    35    1
     7    32    33    1
     8    33    36    1
     9    33    44    1
    10    39    40    1
    11    39    42    2
    12    39    41   am
    13    41    43    1
    14    29    28    1
    15    34    37    1
    16    35    38    1
    17    29    36    1
    18    44    45    1
    19    45    46    1
    20    15     6    1
    21    15    16   ar
    22    16    21    2
    23    16    17   ar
    24    17    23    1
    25    17    18   ar
    26    18    19   ar
    27    19    20   ar
    28    15    20   ar
    29    18    22    2
    30     6     7    1
    31     6    11    1
    32     7     9    1
    33     7     8    1
    34     8    13    1
    35     9    10    1
    36     9    12    1
    37    10     5    1
    38    10    11    1
    39    12    14    1
    40     5     4    1
    41     4     1    1
    42     1     2    1
    43     1    24    1
    44     1     3    2
    45    24    25    1
    46    28    25    1
    47    25    26    1
    48    25    27    2
@<TRIPOS>MOLECULE
UD2
 46 48 0 0 0
SMALL
GASTEIGER

@<TRIPOS>ATOM
      1 P          21.7205   71.2323   -0.0144 P.3     1  UNL1        0.2189
      2 O          21.5960   69.9796    0.9889 O.3     1  UNL1       -0.4371
      3 O          20.3784   71.8050   -0.2583 O.2     1  UNL1       -0.5170
      4 O          22.6712   72.3538    0.6431 O.3     1  UNL1       -0.3112
      5 C          23.5111   72.0970    1.7701 C.3     1  UNL1        0.1811
      6 C          22.6254   73.2824    5.0484 C.3     1  UNL1        0.2383
      7 C          21.7558   74.1252    4.0811 C.3     1  UNL1        0.1895
      8 O          20.5158   74.4857    4.6927 O.3     1  UNL1       -0.3779
      9 C          21.5275   73.1411    2.9077 C.3     1  UNL1        0.1713
     10 C          22.6691   72.1162    3.0482 C.3     1  UNL1        0.1764
     11 O          23.4790   72.5278    4.1609 O.3     1  UNL1       -0.3308
     12 O          20.2585   72.4977    3.0360 O.3     1  UNL1       -0.3794
     13 H          19.9370   75.0145    4.1270 H       1  UNL1        0.2106
     14 H          19.5055   73.1035    3.0140 H       1  UNL1        0.2105
     15 N          23.4227   74.1521    5.9160 N.ar    1  UNL1       -0.2551
     16 C          22.9378   74.5237    7.1141 C.ar    1  UNL1        0.3323
     17 N          23.6487   75.3225    7.9318 N.ar    1  UNL1       -0.2743
     18 C          24.8674   75.7633    7.5590 C.ar    1  UNL1        0.2626
     19 C          25.3907   75.3791    6.3009 C.ar    1  UNL1        0.0795
     20 C          24.6579   74.5741    5.5031 C.ar    1  UNL1        0.0869
     21 O          21.8404   74.1336    7.4634 O.2     1  UNL1       -0.2464
     22 O          25.5121   76.4860    8.2984 O.2     1  UNL1       -0.2670
     23 H          23.2837   75.5819    8.7918 H       1  UNL1        0.1734
     24 O          22.3568   70.7415   -1.4099 O.3     1  UNL1       -0.2703
     25 P          22.9860   71.5038   -2.6811 P.3     1  UNL1        0.2208
     26 O          23.2301   73.0521   -2.3110 O.3     1  UNL1       -0.4371
     27 O          24.2747   70.8753   -3.0453 O.2     1  UNL1       -0.5170
     28 O          21.9686   71.4028   -3.9250 O.3     1  UNL1       -0.2865
     29 C          20.9279   72.3534   -4.1586 C.3     1  UNL1        0.2611
     30 C          19.6613   71.6235   -4.6121 C.3     1  UNL1        0.1582
     31 C          19.9420   70.9064   -5.9362 C.3     1  UNL1        0.1625
     32 C          20.4222   71.9311   -6.9676 C.3     1  UNL1        0.1686
     33 C          21.6599   72.6492   -6.4231 C.3     1  UNL1        0.1760
     34 O          18.7440   70.2829   -6.4045 O.3     1  UNL1       -0.3801
     35 O          19.3859   72.8837   -7.2128 O.3     1  UNL1       -0.3794
     36 O          21.3391   73.2688   -5.1761 O.3     1  UNL1       -0.3263
     37 H          18.8489   69.8084   -7.2406 H       1  UNL1        0.2105
     38 H          19.6218   73.5652   -7.8576 H       1  UNL1        0.2105
     39 C          17.9711   70.4686   -3.2903 C.2     1  UNL1        0.2231
     40 C          17.5701   69.4594   -2.2465 C.3     1  UNL1        0.0946
     41 N          19.2720   70.6419   -3.5965 N.am    1  UNL1       -0.2994
     42 O          17.1228   71.1262   -3.8560 O.2     1  UNL1       -0.2751
     43 H          19.9506   70.1171   -3.1437 H       1  UNL1        0.1496
     44 C          22.1107   73.7165   -7.4222 C.3     1  UNL1        0.1693
     45 O          23.3363   73.3097   -8.0343 O.3     1  UNL1       -0.3794
     46 H          23.6820   73.9402   -8.6808 H       1  UNL1        0.2105
@<TRIPOS>BOND
     1    29    30    1
     2    30    41    1
     3    30    31    1
     4    31    34    1
     5    31    32    1
     6    32    35    1
     7    32    33    1
     8    33    36    1
     9    33    44    1
    10    39    40    1
    11    39    42    2
    12    39    41   am
    13    41    43    1
    14    29    28    1
    15    34    37    1
    16    35    38    1
    17    29    36    1
    18    44    45    1
    19    45    46    1
    20    15     6    1
    21    15    16   ar
    22    16    21    2
    23    16    17   ar
    24    17    23    1
    25    17    18   ar
    26    18    19   ar
    27    19    20   ar
    28    15    20   ar
    29    18    22    2
    30     6     7    1
    31     6    11    1
    32     7     9    1
    33     7     8    1
    34     8    13    1
    35     9    10    1
    36     9    12    1
    37    10     5    1
    38    10    11    1
    39    12    14    1
    40     5     4    1
    41     4     1    1
    42     1     2    1
    43     1    24    1
    44     1     3    2
    45    24    25    1
    46    28    25    1
    47    25    26    1
    48    25    27    2
@<TRIPOS>MOLECULE
UD2
 46 48 0 0 0
SMALL
GASTEIGER

@<TRIPOS>ATOM
      1 P          16.4177   69.5562   -2.5950 P.3     1  UNL1        0.2189
      2 O          17.3341   68.3436   -2.0647 O.3     1  UNL1       -0.4371
      3 O          15.9819   69.2766   -3.9809 O.2     1  UNL1       -0.5170
      4 O          15.1252   69.7067   -1.6459 O.3     1  UNL1       -0.3112
      5 C          14.9005   68.8804   -0.5022 C.3     1  UNL1        0.1811
      6 C          11.9958   67.8745    1.3653 C.3     1  UNL1        0.2383
      7 C          12.2410   69.3453    1.7882 C.3     1  UNL1        0.1895
      8 O          11.0104   69.9941    2.1143 O.3     1  UNL1       -0.3779
      9 C          12.8632   69.9527    0.5071 C.3     1  UNL1        0.1713
     10 C          13.3951   68.7323   -0.2683 C.3     1  UNL1        0.1764
     11 O          13.1373   67.5696    0.5349 O.3     1  UNL1       -0.3308
     12 O          11.8670   70.6353   -0.2560 O.3     1  UNL1       -0.3794
     13 H          11.1116   70.9165    2.3857 H       1  UNL1        0.2106
     14 H          11.4557   71.3776    0.2071 H       1  UNL1        0.2105
     15 N          11.9626   66.9990    2.5390 N.ar    1  UNL1       -0.2551
     16 C          10.7863   66.7172    3.1270 C.ar    1  UNL1        0.3323
     17 N          10.7261   65.9158    4.2070 N.ar    1  UNL1       -0.2743
     18 C          11.8530   65.3787    4.7173 C.ar    1  UNL1        0.2626
     19 C          13.0979   65.6661    4.1076 C.ar    1  UNL1        0.0795
     20 C          13.1282   66.4693    3.0235 C.ar    1  UNL1        0.0869
     21 O           9.7623   67.1943    2.6776 O.2     1  UNL1       -0.2464
     22 O          11.7998   64.6529    5.6945 O.2     1  UNL1       -0.2670
     23 H           9.8699   65.7239    4.6195 H       1  UNL1        0.1734
     24 O          17.2670   70.9241   -2.5647 O.3     1  UNL1       -0.2703
     25 P          17.1194   72.3481   -3.3019 P.3     1  UNL1        0.2208
     26 O          15.6694   72.4446   -3.9963 O.3     1  UNL1       -0.4371
     27 O          17.2635   73.4352   -2.3091 O.2     1  UNL1       -0.5170
     28 O          18.2636   72.4917   -4.4256 O.3     1  UNL1       -0.2865
     29 C          19.0947   71.4036   -4.8339 C.3     1  UNL1        0.2611
     30 C          20.3043   71.9439   -5.6006 C.3     1  UNL1        0.1582
     31 C          19.8185   72.6582   -6.8656 C.3     1  UNL1        0.1625
     32 C          18.9889   71.6817   -7.7037 C.3     1  UNL1        0.1686
     33 C          17.8297   71.1514   -6.8557 C.3     1  UNL1        0.1760
     34 O          20.9451   73.1021   -7.6253 O.3     1  UNL1       -0.3801
     35 O          19.8128   70.5919   -8.1221 O.3     1  UNL1       -0.3794
     36 O          18.3486   70.5264   -5.6801 O.3     1  UNL1       -0.3263
     37 H          20.7108   73.5647   -8.4415 H       1  UNL1        0.2105
     38 H          19.3510   69.9322   -8.6583 H       1  UNL1        0.2105
     39 C          21.8821   72.4336   -3.8094 C.2     1  UNL1        0.2231
     40 C          22.6361   73.4052   -2.9398 C.3     1  UNL1        0.0946
     41 N          21.0371   72.8896   -4.7549 N.am    1  UNL1       -0.2994
     42 O          22.0354   71.2394   -3.6590 O.2     1  UNL1       -0.2751
     43 H          20.9135   73.8442   -4.8749 H       1  UNL1        0.1496
     44 C          17.0306   70.1296   -7.6666 C.3     1  UNL1        0.1693
     45 O          17.1266   70.4440   -9.0574 O.3     1  UNL1       -0.3794
     46 H          16.6426   69.8362   -9.6330 H       1  UNL1        0.2105
@<TRIPOS>BOND
     1    29    30    1
     2    30    41    1
     3    30    31    1
     4    31    34    1
     5    31    32    1
     6    32    35    1
     7    32    33    1
     8    33    36    1
     9    33    44    1
    10    39    40    1
    11    39    42    2
    12    39    41   am
    13    41    43    1
    14    29    28    1
    15    34    37    1
    16    35    38    1
    17    29    36    1
    18    44    45    1
    19    45    46    1
    20    15     6    1
    21    15    16   ar
    22    16    21    2
    23    16    17   ar
    24    17    23    1
    25    17    18   ar
    26    18    19   ar
    27    19    20   ar
    28    15    20   ar
    29    18    22    2
    30     6     7    1
    31     6    11    1
    32     7     9    1
    33     7     8    1
    34     8    13    1
    35     9    10    1
    36     9    12    1
    37    10     5    1
    38    10    11    1
    39    12    14    1
    40     5     4    1
    41     4     1    1
    42     1     2    1
    43     1    24    1
    44     1     3    2
    45    24    25    1
    46    28    25    1
    47    25    26    1
    48    25    27    2
@<TRIPOS>MOLECULE
UD2
 46 48 0 0 0
SMALL
GASTEIGER

@<TRIPOS>ATOM
      1 P          20.6167   71.5064   -0.9696 P.3     1  UNL1        0.2189
      2 O          20.6966   73.0451   -0.5034 O.3     1  UNL1       -0.4371
      3 O          20.7241   70.6254    0.2141 O.2     1  UNL1       -0.5170
      4 O          19.2107   71.2423   -1.7094 O.3     1  UNL1       -0.3112
      5 C          18.9841   70.1261   -2.5721 C.3     1  UNL1        0.1811
      6 C          17.2021   70.4053   -5.6839 C.3     1  UNL1        0.2383
      7 C          16.9686   68.9415   -5.2310 C.3     1  UNL1        0.1895
      8 O          15.6992   68.4646   -5.6815 O.3     1  UNL1       -0.3779
      9 C          16.9944   69.0703   -3.6882 C.3     1  UNL1        0.1713
     10 C          17.7465   70.3905   -3.4331 C.3     1  UNL1        0.1764
     11 O          18.1429   70.9110   -4.7119 O.3     1  UNL1       -0.3308
     12 O          15.6646   69.1438   -3.1714 O.3     1  UNL1       -0.3794
     13 H          15.5071   67.5529   -5.4235 H       1  UNL1        0.2106
     14 H          15.1266   68.3620   -3.3553 H       1  UNL1        0.2105
     15 N          17.7793   70.4430   -7.0294 N.ar    1  UNL1       -0.2551
     16 C          16.9687   70.4407   -8.1026 C.ar    1  UNL1        0.3323
     17 N          17.4717   70.4748   -9.3508 N.ar    1  UNL1       -0.2743
     18 C          18.8057   70.5138   -9.5441 C.ar    1  UNL1        0.2626
     19 C          19.6707   70.5177   -8.4235 C.ar    1  UNL1        0.0795
     20 C          19.1388   70.4874   -7.1834 C.ar    1  UNL1        0.0869
     21 O          15.7638   70.4059   -7.9432 O.2     1  UNL1       -0.2464
     22 O          19.2622   70.5450  -10.6734 O.2     1  UNL1       -0.2670
     23 H          16.8730   70.4713  -10.1135 H       1  UNL1        0.1734
     24 O          21.8249   71.1898   -1.9861 O.3     1  UNL1       -0.2703
     25 P          23.3913   71.5623   -2.0112 P.3     1  UNL1        0.2208
     26 O          23.9985   71.4269   -0.5257 O.3     1  UNL1       -0.4371
     27 O          24.1038   70.6385   -2.9208 O.2     1  UNL1       -0.5170
     28 O          23.5747   73.0753   -2.5306 O.3     1  UNL1       -0.2865
     29 C          24.4160   73.4239   -3.6315 C.3     1  UNL1        0.2611
     30 C          24.5746   74.9450   -3.6922 C.3     1  UNL1        0.1582
     31 C          23.2034   75.5834   -3.9344 C.3     1  UNL1        0.1625
     32 C          22.6057   75.0103   -5.2223 C.3     1  UNL1        0.1686
     33 C          22.5229   73.4862   -5.1025 C.3     1  UNL1        0.1760
     34 O          23.3526   76.9990   -4.0657 O.3     1  UNL1       -0.3801
     35 O          23.4371   75.3584   -6.3309 O.3     1  UNL1       -0.3794
     36 O          23.8262   72.9586   -4.8472 O.3     1  UNL1       -0.3263
     37 H          22.5217   77.4689   -4.2205 H       1  UNL1        0.2105
     38 H          23.1184   75.0264   -7.1819 H       1  UNL1        0.2105
     39 C          24.2945   75.8013   -1.4282 C.2     1  UNL1        0.2231
     40 C          24.8582   76.3005   -0.1237 C.3     1  UNL1        0.0946
     41 N          25.1237   75.4307   -2.4237 N.am    1  UNL1       -0.2994
     42 O          23.0931   75.7327   -1.5833 O.2     1  UNL1       -0.2751
     43 H          26.0843   75.4863   -2.3004 H       1  UNL1        0.1496
     44 C          21.9822   72.9009   -6.4085 C.3     1  UNL1        0.1693
     45 O          23.0676   72.4032   -7.1937 O.3     1  UNL1       -0.3794
     46 H          22.7981   72.0166   -8.0380 H       1  UNL1        0.2105
@<TRIPOS>BOND
     1    29    30    1
     2    30    41    1
     3    30    31    1
     4    31    34    1
     5    31    32    1
     6    32    35    1
     7    32    33    1
     8    33    36    1
     9    33    44    1
    10    39    40    1
    11    39    42    2
    12    39    41   am
    13    41    43    1
    14    29    28    1
    15    34    37    1
    16    35    38    1
    17    29    36    1
    18    44    45    1
    19    45    46    1
    20    15     6    1
    21    15    16   ar
    22    16    21    2
    23    16    17   ar
    24    17    23    1
    25    17    18   ar
    26    18    19   ar
    27    19    20   ar
    28    15    20   ar
    29    18    22    2
    30     6     7    1
    31     6    11    1
    32     7     9    1
    33     7     8    1
    34     8    13    1
    35     9    10    1
    36     9    12    1
    37    10     5    1
    38    10    11    1
    39    12    14    1
    40     5     4    1
    41     4     1    1
    42     1     2    1
    43     1    24    1
    44     1     3    2
    45    24    25    1
    46    28    25    1
    47    25    26    1
    48    25    27    2
@<TRIPOS>MOLECULE
UD2
 46 48 0 0 0
SMALL
GASTEIGER

@<TRIPOS>ATOM
      1 P          21.3504   72.1288   -2.1441 P.3     1  UNL1        0.2189
      2 O          21.7761   72.7259   -3.5772 O.3     1  UNL1       -0.4371
      3 O          22.0640   70.8544   -1.9083 O.2     1  UNL1       -0.5170
      4 O          21.7361   73.1818   -0.9882 O.3     1  UNL1       -0.3112
      5 C          20.9078   73.4236    0.1506 C.3     1  UNL1        0.1811
      6 C          23.0432   71.7901    2.5399 C.3     1  UNL1        0.2383
      7 C          22.3313   72.9030    3.3503 C.3     1  UNL1        0.1895
      8 O          22.1594   72.5107    4.7135 O.3     1  UNL1       -0.3779
      9 C          20.9652   73.0074    2.6291 C.3     1  UNL1        0.1713
     10 C          21.2254   72.3956    1.2393 C.3     1  UNL1        0.1764
     11 O          22.6154   72.0375    1.1829 O.3     1  UNL1       -0.3308
     12 O          19.9727   72.2554    3.3293 O.3     1  UNL1       -0.3794
     13 H          21.7191   73.1744    5.2615 H       1  UNL1        0.2106
     14 H          19.8109   72.5608    4.2321 H       1  UNL1        0.2105
     15 N          24.4976   71.9188    2.6543 N.ar    1  UNL1       -0.2551
     16 C          25.2817   70.8523    2.4161 C.ar    1  UNL1        0.3323
     17 N          26.6214   70.9417    2.5141 N.ar    1  UNL1       -0.2743
     18 C          27.2006   72.1114    2.8531 C.ar    1  UNL1        0.2626
     19 C          26.3873   73.2423    3.1056 C.ar    1  UNL1        0.0795
     20 C          25.0472   73.1251    2.9959 C.ar    1  UNL1        0.0869
     21 O          24.7732   69.7914    2.1093 O.2     1  UNL1       -0.2464
     22 O          28.4129   72.1937    2.9417 O.2     1  UNL1       -0.2670
     23 H          27.1719   70.1628    2.3401 H       1  UNL1        0.1734
     24 O          19.7617   71.8668   -2.1220 O.3     1  UNL1       -0.2703
     25 P          18.7599   70.9941   -3.0319 P.3     1  UNL1        0.2208
     26 O          19.6153   70.0416   -4.0090 O.3     1  UNL1       -0.4371
     27 O          17.9004   70.1624   -2.1614 O.2     1  UNL1       -0.5170
     28 O          17.8394   71.9789   -3.9126 O.3     1  UNL1       -0.2865
     29 C          16.9558   71.5125   -4.9338 C.3     1  UNL1        0.2611
     30 C          17.4011   72.0691   -6.2884 C.3     1  UNL1        0.1582
     31 C          17.3103   73.5978   -6.2573 C.3     1  UNL1        0.1625
     32 C          15.8774   74.0064   -5.9046 C.3     1  UNL1        0.1686
     33 C          15.4908   73.3750   -4.5644 C.3     1  UNL1        0.1760
     34 O          17.6540   74.1225   -7.5418 O.3     1  UNL1       -0.3801
     35 O          14.9859   73.5494   -6.9232 O.3     1  UNL1       -0.3794
     36 O          15.6266   71.9552   -4.6518 O.3     1  UNL1       -0.3263
     37 H          17.6184   75.0874   -7.5944 H       1  UNL1        0.2105
     38 H          14.0582   73.7731   -6.7643 H       1  UNL1        0.2105
     39 C          19.0435   70.6831   -7.4370 C.2     1  UNL1        0.2231
     40 C          20.4656   70.2683   -7.7089 C.3     1  UNL1        0.0946
     41 N          18.7847   71.6660   -6.5521 N.am    1  UNL1       -0.2994
     42 O          18.1297   70.1323   -8.0149 O.2     1  UNL1       -0.2751
     43 H          19.5149   72.1059   -6.0891 H       1  UNL1        0.1496
     44 C          14.0399   73.7296   -4.2336 C.3     1  UNL1        0.1693
     45 O          13.3585   72.5636   -3.7662 O.3     1  UNL1       -0.3794
     46 H          12.4313   72.7145   -3.5372 H       1  UNL1        0.2105
@<TRIPOS>BOND
     1    29    30    1
     2    30    41    1
     3    30    31    1
     4    31    34    1
     5    31    32    1
     6    32    35    1
     7    32    33    1
     8    33    36    1
     9    33    44    1
    10    39    40    1
    11    39    42    2
    12    39    41   am
    13    41    43    1
    14    29    28    1
    15    34    37    1
    16    35    38    1
    17    29    36    1
    18    44    45    1
    19    45    46    1
    20    15     6    1
    21    15    16   ar
    22    16    21    2
    23    16    17   ar
    24    17    23    1
    25    17    18   ar
    26    18    19   ar
    27    19    20   ar
    28    15    20   ar
    29    18    22    2
    30     6     7    1
    31     6    11    1
    32     7     9    1
    33     7     8    1
    34     8    13    1
    35     9    10    1
    36     9    12    1
    37    10     5    1
    38    10    11    1
    39    12    14    1
    40     5     4    1
    41     4     1    1
    42     1     2    1
    43     1    24    1
    44     1     3    2
    45    24    25    1
    46    28    25    1
    47    25    26    1
    48    25    27    2
@<TRIPOS>MOLECULE
UD2
 46 48 0 0 0
SMALL
GASTEIGER

@<TRIPOS>ATOM
      1 P          22.0094   72.3460   -6.1512 P.3     1  UNL1        0.2189
      2 O          23.0781   73.2853   -6.9042 O.3     1  UNL1       -0.4371
      3 O          20.8863   73.1730   -5.6575 O.2     1  UNL1       -0.5170
      4 O          21.4499   71.2393   -7.1788 O.3     1  UNL1       -0.3112
      5 C          20.5221   71.5455   -8.2213 C.3     1  UNL1        0.1811
      6 C          17.4632   70.1651   -6.9274 C.3     1  UNL1        0.2383
      7 C          17.0099   71.1338   -8.0491 C.3     1  UNL1        0.1895
      8 O          15.8032   70.6754   -8.6620 O.3     1  UNL1       -0.3779
      9 C          18.1960   71.0601   -9.0416 C.3     1  UNL1        0.1713
     10 C          19.3688   70.5397   -8.1888 C.3     1  UNL1        0.1764
     11 O          18.8870   70.3918   -6.8436 O.3     1  UNL1       -0.3308
     12 O          17.9039   70.1476  -10.1012 O.3     1  UNL1       -0.3794
     13 H          15.4789   71.2485   -9.3698 H       1  UNL1        0.2106
     14 H          17.1371   70.3958  -10.6349 H       1  UNL1        0.2105
     15 N          16.8112   70.5022   -5.6601 N.ar    1  UNL1       -0.2551
     16 C          16.4640   69.5215   -4.8077 C.ar    1  UNL1        0.3323
     17 N          15.8633   69.8023   -3.6361 N.ar    1  UNL1       -0.2743
     18 C          15.6011   71.0809   -3.2972 C.ar    1  UNL1        0.2626
     19 C          15.9621   72.1233   -4.1844 C.ar    1  UNL1        0.0795
     20 C          16.5669   71.8131   -5.3504 C.ar    1  UNL1        0.0869
     21 O          16.6945   68.3640   -5.1002 O.2     1  UNL1       -0.2464
     22 O          15.0579   71.3364   -2.2369 O.2     1  UNL1       -0.2670
     23 H          15.6185   69.0830   -3.0338 H       1  UNL1        0.1734
     24 O          22.7223   71.6113   -4.9081 O.3     1  UNL1       -0.2703
     25 P          23.4046   72.1297   -3.5448 P.3     1  UNL1        0.2208
     26 O          24.2650   70.9370   -2.8885 O.3     1  UNL1       -0.4371
     27 O          24.2945   73.2734   -3.8421 O.2     1  UNL1       -0.5170
     28 O          22.2582   72.5949   -2.5142 O.3     1  UNL1       -0.2865
     29 C          22.4650   73.6027   -1.5228 C.3     1  UNL1        0.2611
     30 C          22.2824   72.9947   -0.1300 C.3     1  UNL1        0.1582
     31 C          20.8431   72.4903    0.0127 C.3     1  UNL1        0.1625
     32 C          19.8787   73.6513   -0.2448 C.3     1  UNL1        0.1686
     33 C          20.1540   74.2340   -1.6336 C.3     1  UNL1        0.1760
     34 O          20.6427   71.9874    1.3357 O.3     1  UNL1       -0.3801
     35 O          20.0735   74.6627    0.7453 O.3     1  UNL1       -0.3794
     36 O          21.5172   74.6558   -1.7097 O.3     1  UNL1       -0.3263
     37 H          19.7509   71.6498    1.4968 H       1  UNL1        0.2105
     38 H          19.4945   75.4309    0.6430 H       1  UNL1        0.2105
     39 C          24.1453   71.9175    1.0132 C.2     1  UNL1        0.2231
     40 C          25.1019   70.7676    1.1901 C.3     1  UNL1        0.0946
     41 N          23.2127   71.8759    0.0413 N.am    1  UNL1       -0.2994
     42 O          24.2140   72.8822    1.7459 O.2     1  UNL1       -0.2751
     43 H          23.1580   71.1053   -0.5454 H       1  UNL1        0.1496
     44 C          19.2346   75.4327   -1.8748 C.3     1  UNL1        0.1693
     45 O          17.9848   75.2155   -1.2166 O.3     1  UNL1       -0.3794
     46 H          17.3508   75.9373   -1.3270 H       1  UNL1        0.2105
@<TRIPOS>BOND
     1    29    30    1
     2    30    41    1
     3    30    31    1
     4    31    34    1
     5    31    32    1
     6    32    35    1
     7    32    33    1
     8    33    36    1
     9    33    44    1
    10    39    40    1
    11    39    42    2
    12    39    41   am
    13    41    43    1
    14    29    28    1
    15    34    37    1
    16    35    38    1
    17    29    36    1
    18    44    45    1
    19    45    46    1
    20    15     6    1
    21    15    16   ar
    22    16    21    2
    23    16    17   ar
    24    17    23    1
    25    17    18   ar
    26    18    19   ar
    27    19    20   ar
    28    15    20   ar
    29    18    22    2
    30     6     7    1
    31     6    11    1
    32     7     9    1
    33     7     8    1
    34     8    13    1
    35     9    10    1
    36     9    12    1
    37    10     5    1
    38    10    11    1
    39    12    14    1
    40     5     4    1
    41     4     1    1
    42     1     2    1
    43     1    24    1
    44     1     3    2
    45    24    25    1
    46    28    25    1
    47    25    26    1
    48    25    27    2
@<TRIPOS>MOLECULE
UD2
 46 48 0 0 0
SMALL
GASTEIGER

@<TRIPOS>ATOM
      1 P          21.6038   73.3559   -6.5423 P.3     1  UNL1        0.2189
      2 O          23.0432   73.2358   -7.2530 O.3     1  UNL1       -0.4371
      3 O          20.8819   74.5284   -7.0835 O.2     1  UNL1       -0.5170
      4 O          20.7506   72.0205   -6.8297 O.3     1  UNL1       -0.3112
      5 C          20.5933   71.4651   -8.1366 C.3     1  UNL1        0.1811
      6 C          17.4669   70.1671   -6.9211 C.3     1  UNL1        0.2383
      7 C          17.0670   71.1620   -8.0402 C.3     1  UNL1        0.1895
      8 O          15.8595   70.7487   -8.6826 O.3     1  UNL1       -0.3779
      9 C          18.2704   71.0623   -9.0093 C.3     1  UNL1        0.1713
     10 C          19.4086   70.4957   -8.1392 C.3     1  UNL1        0.1764
     11 O          18.8950   70.3481   -6.8059 O.3     1  UNL1       -0.3308
     12 O          17.9719   70.1713  -10.0853 O.3     1  UNL1       -0.3794
     13 H          15.5679   71.3396   -9.3900 H       1  UNL1        0.2106
     14 H          17.2242   70.4494  -10.6314 H       1  UNL1        0.2105
     15 N          16.7998   70.5103   -5.6632 N.ar    1  UNL1       -0.2551
     16 C          16.4742   69.5368   -4.7943 C.ar    1  UNL1        0.3323
     17 N          15.8604   69.8233   -3.6310 N.ar    1  UNL1       -0.2743
     18 C          15.5629   71.1006   -3.3171 C.ar    1  UNL1        0.2626
     19 C          15.9009   72.1355   -4.2220 C.ar    1  UNL1        0.0795
     20 C          16.5196   71.8199   -5.3792 C.ar    1  UNL1        0.0869
     21 O          16.7365   68.3806   -5.0641 O.2     1  UNL1       -0.2464
     22 O          15.0078   71.3613   -2.2643 O.2     1  UNL1       -0.2670
     23 H          15.6315   69.1091   -3.0164 H       1  UNL1        0.1734
     24 O          21.8023   73.5336   -4.9541 O.3     1  UNL1       -0.2703
     25 P          23.0903   73.6350   -3.9929 P.3     1  UNL1        0.2208
     26 O          24.1397   72.4757   -4.3785 O.3     1  UNL1       -0.4371
     27 O          23.7315   74.9570   -4.1647 O.2     1  UNL1       -0.5170
     28 O          22.6313   73.4558   -2.4600 O.3     1  UNL1       -0.2865
     29 C          23.4118   72.7541   -1.4906 C.3     1  UNL1        0.2611
     30 C          22.6386   71.5264   -1.0032 C.3     1  UNL1        0.1582
     31 C          21.3483   71.9856   -0.3173 C.3     1  UNL1        0.1625
     32 C          21.7025   72.9402    0.8262 C.3     1  UNL1        0.1686
     33 C          22.5120   74.1137    0.2681 C.3     1  UNL1        0.1760
     34 O          20.6557   70.8499    0.2058 O.3     1  UNL1       -0.3801
     35 O          22.4788   72.2462    1.8046 O.3     1  UNL1       -0.3794
     36 O          23.6824   73.6160   -0.3832 O.3     1  UNL1       -0.3263
     37 H          19.8269   71.0673    0.6541 H       1  UNL1        0.2105
     38 H          22.7401   72.7918    2.5596 H       1  UNL1        0.2105
     39 C          21.1147   70.7966   -2.7589 C.2     1  UNL1        0.2231
     40 C          20.7742   69.9176   -3.9338 C.3     1  UNL1        0.0946
     41 N          22.3081   70.6709   -2.1458 N.am    1  UNL1       -0.2994
     42 O          20.3142   71.6184   -2.3639 O.2     1  UNL1       -0.2751
     43 H          22.9480   70.0133   -2.4606 H       1  UNL1        0.1496
     44 C          22.9210   75.0415    1.4137 C.3     1  UNL1        0.1693
     45 O          23.7684   76.0763    0.9103 O.3     1  UNL1       -0.3794
     46 H          24.0670   76.7031    1.5832 H       1  UNL1        0.2105
@<TRIPOS>BOND
     1    29    30    1
     2    30    41    1
     3    30    31    1
     4    31    34    1
     5    31    32    1
     6    32    35    1
     7    32    33    1
     8    33    36    1
     9    33    44    1
    10    39    40    1
    11    39    42    2
    12    39    41   am
    13    41    43    1
    14    29    28    1
    15    34    37    1
    16    35    38    1
    17    29    36    1
    18    44    45    1
    19    45    46    1
    20    15     6    1
    21    15    16   ar
    22    16    21    2
    23    16    17   ar
    24    17    23    1
    25    17    18   ar
    26    18    19   ar
    27    19    20   ar
    28    15    20   ar
    29    18    22    2
    30     6     7    1
    31     6    11    1
    32     7     9    1
    33     7     8    1
    34     8    13    1
    35     9    10    1
    36     9    12    1
    37    10     5    1
    38    10    11    1
    39    12    14    1
    40     5     4    1
    41     4     1    1
    42     1     2    1
    43     1    24    1
    44     1     3    2
    45    24    25    1
    46    28    25    1
    47    25    26    1
    48    25    27    2
@<TRIPOS>MOLECULE
UD2
 46 48 0 0 0
SMALL
GASTEIGER

@<TRIPOS>ATOM
      1 P          16.4450   69.8790   -2.9769 P.3     1  UNL1        0.2189
      2 O          17.7273   69.2899   -2.2022 O.3     1  UNL1       -0.4371
      3 O          16.0886   68.9804   -4.0968 O.2     1  UNL1       -0.5170
      4 O          15.2033   69.9838   -1.9567 O.3     1  UNL1       -0.3112
      5 C          15.0111   69.0756   -0.8705 C.3     1  UNL1        0.1811
      6 C          12.1717   68.0124    1.0645 C.3     1  UNL1        0.2383
      7 C          12.4644   69.4514    1.5602 C.3     1  UNL1        0.1895
      8 O          11.2624   70.1012    1.9782 O.3     1  UNL1       -0.3779
      9 C          13.0417   70.1220    0.2896 C.3     1  UNL1        0.1713
     10 C          13.5147   68.9401   -0.5781 C.3     1  UNL1        0.1764
     11 O          13.2694   67.7369    0.1673 O.3     1  UNL1       -0.3308
     12 O          12.0267   70.8653   -0.3872 O.3     1  UNL1       -0.3794
     13 H          11.3937   71.0042    2.2975 H       1  UNL1        0.2106
     14 H          11.6511   71.5861    0.1360 H       1  UNL1        0.2105
     15 N          12.1727   67.0703    2.1859 N.ar    1  UNL1       -0.2551
     16 C          13.3411   66.6264    2.6823 C.ar    1  UNL1        0.3323
     17 N          13.3718   65.7602    3.7123 N.ar    1  UNL1       -0.2743
     18 C          12.2225   65.3234    4.2664 C.ar    1  UNL1        0.2626
     19 C          10.9853   65.7834    3.7545 C.ar    1  UNL1        0.0795
     20 C          10.9844   66.6549    2.7239 C.ar    1  UNL1        0.0869
     21 O          14.3852   67.0119    2.1928 O.2     1  UNL1       -0.2464
     22 O          12.2489   64.5397    5.1989 O.2     1  UNL1       -0.2670
     23 H          14.2229   65.4491    4.0573 H       1  UNL1        0.1734
     24 O          16.7910   71.3428   -3.5521 O.3     1  UNL1       -0.2703
     25 P          17.9477   72.4200   -3.2446 P.3     1  UNL1        0.2208
     26 O          17.3647   73.9069   -3.4524 O.3     1  UNL1       -0.4371
     27 O          18.4101   72.2628   -1.8482 O.2     1  UNL1       -0.5170
     28 O          19.1832   72.1823   -4.2495 O.3     1  UNL1       -0.2865
     29 C          19.2923   72.8331   -5.5167 C.3     1  UNL1        0.2611
     30 C          19.3993   71.7817   -6.6238 C.3     1  UNL1        0.1582
     31 C          20.6736   70.9583   -6.4127 C.3     1  UNL1        0.1625
     32 C          21.8797   71.9012   -6.3891 C.3     1  UNL1        0.1686
     33 C          21.6770   72.9482   -5.2906 C.3     1  UNL1        0.1760
     34 O          20.8198   70.0224   -7.4832 O.3     1  UNL1       -0.3801
     35 O          22.0012   72.5531   -7.6545 O.3     1  UNL1       -0.3794
     36 O          20.4596   73.6573   -5.5295 O.3     1  UNL1       -0.3263
     37 H          21.6074   69.4656   -7.4134 H       1  UNL1        0.2105
     38 H          22.7461   73.1678   -7.7112 H       1  UNL1        0.2105
     39 C          17.2156   71.0745   -7.4418 C.2     1  UNL1        0.2231
     40 C          16.0149   70.1665   -7.3916 C.3     1  UNL1        0.0946
     41 N          18.2315   70.8982   -6.5742 N.am    1  UNL1       -0.2994
     42 O          17.2687   71.9653   -8.2639 O.2     1  UNL1       -0.2751
     43 H          18.1891   70.1867   -5.9161 H       1  UNL1        0.1496
     44 C          22.8500   73.9303   -5.2999 C.3     1  UNL1        0.1693
     45 O          22.5907   74.9743   -6.2407 O.3     1  UNL1       -0.3794
     46 H          23.2943   75.6350   -6.2998 H       1  UNL1        0.2105
@<TRIPOS>BOND
     1    29    30    1
     2    30    41    1
     3    30    31    1
     4    31    34    1
     5    31    32    1
     6    32    35    1
     7    32    33    1
     8    33    36    1
     9    33    44    1
    10    39    40    1
    11    39    42    2
    12    39    41   am
    13    41    43    1
    14    29    28    1
    15    34    37    1
    16    35    38    1
    17    29    36    1
    18    44    45    1
    19    45    46    1
    20    15     6    1
    21    15    16   ar
    22    16    21    2
    23    16    17   ar
    24    17    23    1
    25    17    18   ar
    26    18    19   ar
    27    19    20   ar
    28    15    20   ar
    29    18    22    2
    30     6     7    1
    31     6    11    1
    32     7     9    1
    33     7     8    1
    34     8    13    1
    35     9    10    1
    36     9    12    1
    37    10     5    1
    38    10    11    1
    39    12    14    1
    40     5     4    1
    41     4     1    1
    42     1     2    1
    43     1    24    1
    44     1     3    2
    45    24    25    1
    46    28    25    1
    47    25    26    1
    48    25    27    2
@<TRIPOS>MOLECULE
UD2
 46 48 0 0 0
SMALL
GASTEIGER

@<TRIPOS>ATOM
      1 P          21.0578   71.4647   -1.6831 P.3     1  UNL1        0.2189
      2 O          20.8686   70.6202   -0.3258 O.3     1  UNL1       -0.4371
      3 O          22.2333   70.9545   -2.4225 O.2     1  UNL1       -0.5170
      4 O          19.7409   71.3125   -2.5976 O.3     1  UNL1       -0.3112
      5 C          18.8700   70.1822   -2.5240 C.3     1  UNL1        0.1811
      6 C          17.1453   70.4096   -5.6721 C.3     1  UNL1        0.2383
      7 C          16.9206   68.9475   -5.2093 C.3     1  UNL1        0.1895
      8 O          15.6660   68.4508   -5.6794 O.3     1  UNL1       -0.3779
      9 C          16.9151   69.0915   -3.6676 C.3     1  UNL1        0.1713
     10 C          17.6462   70.4232   -3.4112 C.3     1  UNL1        0.1764
     11 O          18.0610   70.9361   -4.6873 O.3     1  UNL1       -0.3308
     12 O          15.5748   69.1538   -3.1772 O.3     1  UNL1       -0.3794
     13 H          15.4799   67.5394   -5.4161 H       1  UNL1        0.2106
     14 H          15.0498   68.3638   -3.3636 H       1  UNL1        0.2105
     15 N          17.7478   70.4414   -7.0066 N.ar    1  UNL1       -0.2551
     16 C          16.9573   70.4757   -8.0941 C.ar    1  UNL1        0.3323
     17 N          17.4838   70.5053   -9.3327 N.ar    1  UNL1       -0.2743
     18 C          18.8217   70.5027   -9.5017 C.ar    1  UNL1        0.2626
     19 C          19.6658   70.4677   -8.3657 C.ar    1  UNL1        0.0795
     20 C          19.1107   70.4428   -7.1357 C.ar    1  UNL1        0.0869
     21 O          15.7492   70.4787   -7.9567 O.2     1  UNL1       -0.2464
     22 O          19.2996   70.5298  -10.6221 O.2     1  UNL1       -0.2670
     23 H          16.8994   70.5286  -10.1060 H       1  UNL1        0.1734
     24 O          21.2831   73.0179   -1.3222 O.3     1  UNL1       -0.2703
     25 P          20.5325   74.0600   -0.3508 P.3     1  UNL1        0.2208
     26 O          20.7851   75.5610   -0.8773 O.3     1  UNL1       -0.4371
     27 O          19.0807   73.7761   -0.3497 O.2     1  UNL1       -0.5170
     28 O          21.1101   73.9111    1.1448 O.3     1  UNL1       -0.2865
     29 C          22.0603   74.8185    1.7062 C.3     1  UNL1        0.2611
     30 C          23.4776   74.3373    1.3862 C.3     1  UNL1        0.1582
     31 C          23.7016   72.9683    2.0359 C.3     1  UNL1        0.1625
     32 C          23.4541   73.0835    3.5425 C.3     1  UNL1        0.1686
     33 C          22.0373   73.6131    3.7794 C.3     1  UNL1        0.1760
     34 O          25.0470   72.5445    1.8040 O.3     1  UNL1       -0.3801
     35 O          24.4034   73.9849    4.1150 O.3     1  UNL1       -0.3794
     36 O          21.8857   74.8736    3.1236 O.3     1  UNL1       -0.3263
     37 H          25.2591   71.6826    2.1879 H       1  UNL1        0.2105
     38 H          24.3049   74.1068    5.0696 H       1  UNL1        0.2105
     39 C          24.4703   75.0585   -0.7191 C.2     1  UNL1        0.2231
     40 C          24.6373   74.9413   -2.2114 C.3     1  UNL1        0.0946
     41 N          23.6394   74.2228   -0.0654 N.am    1  UNL1       -0.2994
     42 O          25.0840   75.9058   -0.1045 O.2     1  UNL1       -0.2751
     43 H          23.1477   73.5459   -0.5565 H       1  UNL1        0.1496
     44 C          21.8028   73.7877    5.2811 C.3     1  UNL1        0.1693
     45 O          22.4356   72.7203    5.9900 O.3     1  UNL1       -0.3794
     46 H          22.3279   72.7666    6.9498 H       1  UNL1        0.2105
@<TRIPOS>BOND
     1    29    30    1
     2    30    41    1
     3    30    31    1
     4    31    34    1
     5    31    32    1
     6    32    35    1
     7    32    33    1
     8    33    36    1
     9    33    44    1
    10    39    40    1
    11    39    42    2
    12    39    41   am
    13    41    43    1
    14    29    28    1
    15    34    37    1
    16    35    38    1
    17    29    36    1
    18    44    45    1
    19    45    46    1
    20    15     6    1
    21    15    16   ar
    22    16    21    2
    23    16    17   ar
    24    17    23    1
    25    17    18   ar
    26    18    19   ar
    27    19    20   ar
    28    15    20   ar
    29    18    22    2
    30     6     7    1
    31     6    11    1
    32     7     9    1
    33     7     8    1
    34     8    13    1
    35     9    10    1
    36     9    12    1
    37    10     5    1
    38    10    11    1
    39    12    14    1
    40     5     4    1
    41     4     1    1
    42     1     2    1
    43     1    24    1
    44     1     3    2
    45    24    25    1
    46    28    25    1
    47    25    26    1
    48    25    27    2
@<TRIPOS>MOLECULE
UD2
 46 48 0 0 0
SMALL
GASTEIGER

@<TRIPOS>ATOM
      1 P          23.3973   72.1894   -3.4082 P.3     1  UNL1        0.2189
      2 O          24.3441   72.9684   -4.4513 O.3     1  UNL1       -0.4371
      3 O          24.0304   70.9072   -3.0288 O.2     1  UNL1       -0.5170
      4 O          23.1892   73.0952   -2.0928 O.3     1  UNL1       -0.3112
      5 C          22.2478   72.7721   -1.0678 C.3     1  UNL1        0.1811
      6 C          24.3444   71.7907    1.6850 C.3     1  UNL1        0.2383
      7 C          22.9487   72.0174    2.3196 C.3     1  UNL1        0.1895
      8 O          22.7539   71.1574    3.4441 O.3     1  UNL1       -0.3779
      9 C          21.9977   71.6338    1.1596 C.3     1  UNL1        0.1713
     10 C          22.8723   71.7617   -0.1023 C.3     1  UNL1        0.1764
     11 O          24.1658   72.2231    0.3187 O.3     1  UNL1       -0.3308
     12 O          21.5372   70.2905    1.3154 O.3     1  UNL1       -0.3794
     13 H          21.8953   71.2624    3.8757 H       1  UNL1        0.2106
     14 H          21.0302   70.1390    2.1245 H       1  UNL1        0.2105
     15 N          25.3559   72.6089    2.3575 N.ar    1  UNL1       -0.2551
     16 C          26.5345   72.0608    2.7030 C.ar    1  UNL1        0.3323
     17 N          27.4823   72.7892    3.3222 N.ar    1  UNL1       -0.2743
     18 C          27.2623   74.0892    3.6052 C.ar    1  UNL1        0.2626
     19 C          26.0266   74.6794    3.2462 C.ar    1  UNL1        0.0795
     20 C          25.0961   73.9266    2.6226 C.ar    1  UNL1        0.0869
     21 O          26.7466   70.8898    2.4539 O.2     1  UNL1       -0.2464
     22 O          28.1195   74.7496    4.1652 O.2     1  UNL1       -0.2670
     23 H          28.3260   72.3780    3.5655 H       1  UNL1        0.1734
     24 O          21.9681   71.9011   -4.0920 O.3     1  UNL1       -0.2703
     25 P          21.2624   72.3882   -5.4549 P.3     1  UNL1        0.2208
     26 O          21.1163   73.9920   -5.4395 O.3     1  UNL1       -0.4371
     27 O          22.0888   71.9799   -6.6119 O.2     1  UNL1       -0.5170
     28 O          19.8035   71.7171   -5.5733 O.3     1  UNL1       -0.2865
     29 C          18.7525   72.2738   -6.3649 C.3     1  UNL1        0.2611
     30 C          17.4034   71.7558   -5.8606 C.3     1  UNL1        0.1582
     31 C          17.3556   70.2339   -6.0281 C.3     1  UNL1        0.1625
     32 C          17.5983   69.8851   -7.4991 C.3     1  UNL1        0.1686
     33 C          18.9403   70.4754   -7.9403 C.3     1  UNL1        0.1760
     34 O          16.0716   69.7499   -5.6280 O.3     1  UNL1       -0.3801
     35 O          16.5489   70.4327   -8.2992 O.3     1  UNL1       -0.3794
     36 O          18.9295   71.8887   -7.7297 O.3     1  UNL1       -0.3263
     37 H          15.9708   68.7914   -5.7073 H       1  UNL1        0.2105
     38 H          16.6387   70.2506   -9.2451 H       1  UNL1        0.2105
     39 C          17.6415   71.2289   -3.4935 C.2     1  UNL1        0.2231
     40 C          17.4805   71.5798   -2.0376 C.3     1  UNL1        0.0946
     41 N          17.2462   72.0978   -4.4447 N.am    1  UNL1       -0.2994
     42 O          18.1274   70.1633   -3.8106 O.2     1  UNL1       -0.2751
     43 H          16.8568   72.9495   -4.1916 H       1  UNL1        0.1496
     44 C          19.1625   70.1823   -9.4252 C.3     1  UNL1        0.1693
     45 O          18.4877   71.1662  -10.2119 O.3     1  UNL1       -0.3794
     46 H          18.5855   71.0426  -11.1659 H       1  UNL1        0.2105
@<TRIPOS>BOND
     1    29    30    1
     2    30    41    1
     3    30    31    1
     4    31    34    1
     5    31    32    1
     6    32    35    1
     7    32    33    1
     8    33    36    1
     9    33    44    1
    10    39    40    1
    11    39    42    2
    12    39    41   am
    13    41    43    1
    14    29    28    1
    15    34    37    1
    16    35    38    1
    17    29    36    1
    18    44    45    1
    19    45    46    1
    20    15     6    1
    21    15    16   ar
    22    16    21    2
    23    16    17   ar
    24    17    23    1
    25    17    18   ar
    26    18    19   ar
    27    19    20   ar
    28    15    20   ar
    29    18    22    2
    30     6     7    1
    31     6    11    1
    32     7     9    1
    33     7     8    1
    34     8    13    1
    35     9    10    1
    36     9    12    1
    37    10     5    1
    38    10    11    1
    39    12    14    1
    40     5     4    1
    41     4     1    1
    42     1     2    1
    43     1    24    1
    44     1     3    2
    45    24    25    1
    46    28    25    1
    47    25    26    1
    48    25    27    2
@<TRIPOS>MOLECULE
UD2
 46 48 0 0 0
SMALL
GASTEIGER

@<TRIPOS>ATOM
      1 P          20.3827   71.5318   -0.8927 P.3     1  UNL1        0.2189
      2 O          19.2466   70.5677   -1.5020 O.3     1  UNL1       -0.4371
      3 O          19.7642   72.4890    0.0508 O.2     1  UNL1       -0.5170
      4 O          21.4791   70.6444   -0.1155 O.3     1  UNL1       -0.3112
      5 C          21.9777   70.9844    1.1796 C.3     1  UNL1        0.1811
      6 C          24.8358   72.8153    2.3696 C.3     1  UNL1        0.2383
      7 C          25.1884   71.3290    2.6316 C.3     1  UNL1        0.1895
      8 O          26.5983   71.1156    2.5407 O.3     1  UNL1       -0.3779
      9 C          24.4455   70.6103    1.4788 C.3     1  UNL1        0.1713
     10 C          23.3645   71.6174    1.0418 C.3     1  UNL1        0.1764
     11 O          23.4688   72.7593    1.9071 O.3     1  UNL1       -0.3308
     12 O          25.3420   70.3389    0.4002 O.3     1  UNL1       -0.3794
     13 H          26.8688   70.2008    2.6975 H       1  UNL1        0.2106
     14 H          26.0766   69.7562    0.6355 H       1  UNL1        0.2105
     15 N          24.9309   73.5938    3.6065 N.ar    1  UNL1       -0.2551
     16 C          26.1059   74.1459    3.9578 C.ar    1  UNL1        0.3323
     17 N          26.2222   74.8661    5.0891 N.ar    1  UNL1       -0.2743
     18 C          25.1535   75.0472    5.8914 C.ar    1  UNL1        0.2626
     19 C          23.9103   74.4725    5.5333 C.ar    1  UNL1        0.0795
     20 C          23.8214   73.7588    4.3913 C.ar    1  UNL1        0.0869
     21 O          27.0778   73.9910    3.2438 O.2     1  UNL1       -0.2464
     22 O          25.2574   75.6992    6.9154 O.2     1  UNL1       -0.2670
     23 H          27.0771   75.2562    5.3281 H       1  UNL1        0.1734
     24 O          21.0974   72.3412   -2.0874 O.3     1  UNL1       -0.2703
     25 P          21.7440   71.9118   -3.4983 P.3     1  UNL1        0.2208
     26 O          22.7514   73.0641   -3.9993 O.3     1  UNL1       -0.4371
     27 O          22.4882   70.6438   -3.3346 O.2     1  UNL1       -0.5170
     28 O          20.5738   71.7112   -4.5860 O.3     1  UNL1       -0.2865
     29 C          20.3344   70.4700   -5.2519 C.3     1  UNL1        0.2611
     30 C          20.2111   70.7133   -6.7580 C.3     1  UNL1        0.1582
     31 C          19.0074   71.6229   -7.0226 C.3     1  UNL1        0.1625
     32 C          17.7515   70.9736   -6.4348 C.3     1  UNL1        0.1686
     33 C          17.9696   70.7202   -4.9408 C.3     1  UNL1        0.1760
     34 O          18.8407   71.7960   -8.4317 O.3     1  UNL1       -0.3801
     35 O          17.4997   69.7336   -7.0983 O.3     1  UNL1       -0.3794
     36 O          19.1216   69.8937   -4.7627 O.3     1  UNL1       -0.3263
     37 H          18.0952   72.3630   -8.6724 H       1  UNL1        0.2105
     38 H          16.7170   69.2657   -6.7753 H       1  UNL1        0.2105
     39 C          21.5031   72.7032   -7.3136 C.2     1  UNL1        0.2231
     40 C          22.7564   73.3678   -7.8198 C.3     1  UNL1        0.0946
     41 N          21.4305   71.3590   -7.2507 N.am    1  UNL1       -0.2994
     42 O          20.5580   73.3781   -6.9621 O.2     1  UNL1       -0.2751
     43 H          22.1855   70.8191   -7.5325 H       1  UNL1        0.1496
     44 C          16.7420   70.0172   -4.3584 C.3     1  UNL1        0.1693
     45 O          16.9072   68.6017   -4.4658 O.3     1  UNL1       -0.3794
     46 H          16.1648   68.0908   -4.1153 H       1  UNL1        0.2105
@<TRIPOS>BOND
     1    29    30    1
     2    30    41    1
     3    30    31    1
     4    31    34    1
     5    31    32    1
     6    32    35    1
     7    32    33    1
     8    33    36    1
     9    33    44    1
    10    39    40    1
    11    39    42    2
    12    39    41   am
    13    41    43    1
    14    29    28    1
    15    34    37    1
    16    35    38    1
    17    29    36    1
    18    44    45    1
    19    45    46    1
    20    15     6    1
    21    15    16   ar
    22    16    21    2
    23    16    17   ar
    24    17    23    1
    25    17    18   ar
    26    18    19   ar
    27    19    20   ar
    28    15    20   ar
    29    18    22    2
    30     6     7    1
    31     6    11    1
    32     7     9    1
    33     7     8    1
    34     8    13    1
    35     9    10    1
    36     9    12    1
    37    10     5    1
    38    10    11    1
    39    12    14    1
    40     5     4    1
    41     4     1    1
    42     1     2    1
    43     1    24    1
    44     1     3    2
    45    24    25    1
    46    28    25    1
    47    25    26    1
    48    25    27    2
