@<TRIPOS>MOLECULE
*****
 43 45 0 0 0
SMALL
GASTEIGER

@<TRIPOS>ATOM
      1 P          21.7843   73.9599   -5.6344 P.3     1  UNL1        0.2189
      2 O          20.7982   74.7808   -4.6482 O.co2   1  UNL1       -0.4371
      3 O          23.0058   74.7106   -6.0774 O.2     1  UNL1       -0.5170
      4 O          20.8090   73.4440   -6.8178 O.3     1  UNL1       -0.3112
      5 C          21.3219   72.5237   -7.7636 C.3     1  UNL1        0.1811
      6 O          19.6885   70.7894   -8.0830 O.3     1  UNL1       -0.3308
      7 O          18.2583   72.7231   -9.8739 O.3     1  UNL1       -0.3794
      8 O          16.8308   72.8896   -7.5564 O.3     1  UNL1       -0.3779
      9 C          18.9890   72.9742   -8.6732 C.3     1  UNL1        0.1713
     10 C          18.1911   72.5200   -7.4693 C.3     1  UNL1        0.1895
     11 C          20.1805   72.0268   -8.6416 C.3     1  UNL1        0.1764
     12 C          18.3917   71.0146   -7.5078 C.3     1  UNL1        0.2383
     13 H          17.4919   73.3168   -9.9165 H       1  UNL1        0.2105
     14 H          16.7561   73.8568   -7.5275 H       1  UNL1        0.2106
     15 O          16.1984   69.5609   -6.4816 O.2     1  UNL1       -0.2464
     16 O          18.3487   68.7892   -2.4785 O.2     1  UNL1       -0.2670
     17 N          18.3517   70.4229   -6.2004 N.ar    1  UNL1       -0.2551
     18 N          17.2711   69.1788   -4.4885 N.ar    1  UNL1       -0.2743
     19 C          17.2014   69.7131   -5.7818 C.ar    1  UNL1        0.3323
     20 C          19.4431   70.5468   -5.3494 C.ar    1  UNL1        0.0869
     21 C          19.4948   70.0318   -4.1194 C.ar    1  UNL1        0.0795
     22 C          18.3339   69.2762   -3.6050 C.ar    1  UNL1        0.2626
     23 H          16.4813   68.6821   -4.1740 H       1  UNL1        0.1734
     24 O          22.0897   72.6094   -4.8003 O.3     1  UNL1       -0.2703
     25 P          23.0468   72.3430   -3.5249 P.3     1  UNL1        0.2208
     26 O          24.2892   73.3492   -3.7784 O.co2   1  UNL1       -0.4371
     27 O          23.4420   70.9064   -3.3410 O.2     1  UNL1       -0.5170
     28 O          22.2521   72.9839   -2.2759 O.3     1  UNL1       -0.2858
     29 O          21.4787   71.1938   -0.9319 O.3     1  UNL1       -0.3226
     30 O          20.1049   74.4759    1.1678 O.3     1  UNL1       -0.3794
     31 O          19.9155   74.3968   -1.7464 O.3     1  UNL1       -0.3775
     32 O          22.4206   72.9990    2.1204 O.3     1  UNL1       -0.3792
     33 C          20.9991   73.7487    0.3253 C.3     1  UNL1        0.1718
     34 C          20.2572   73.2840   -0.9281 C.3     1  UNL1        0.1968
     35 C          21.5178   72.5443    1.1141 C.3     1  UNL1        0.1723
     36 C          21.1130   72.3119   -1.7415 C.3     1  UNL1        0.2706
     37 C          22.2523   71.5598    0.2086 C.3     1  UNL1        0.1830
     38 H          19.7624   75.2462    0.6876 H       1  UNL1        0.2105
     39 H          19.3727   75.0179   -1.2365 H       1  UNL1        0.2106
     40 H          21.9655   73.6265    2.7035 H       1  UNL1        0.2106
     41 O          21.5931   69.3211    0.4439 O.co2   1  UNL1       -0.5466
     42 O          23.3012   70.0472    1.7685 O.co2   1  UNL1       -0.5466
     43 C          22.4624   70.2544    0.9044 C.2     1  UNL1        0.0799
@<TRIPOS>UNITY_ATOM_ATTR
2 1
charge -1
26 1
charge -1
41 1
charge -1
@<TRIPOS>BOND
     1     1     4    1
     2     1    24    1
     3     1     2    1
     4     1     3    2
     5    25    28    1
     6    25    24    1
     7    25    26    1
     8    25    27    2
     9     6    11    1
    10     6    12    1
    11    29    36    1
    12    29    37    1
    13     7     9    1
    14     7    13    1
    15     8    10    1
    16     8    14    1
    17     4     5    1
    18    28    36    1
    19    30    33    1
    20    30    38    1
    21    31    34    1
    22    31    39    1
    23    32    35    1
    24    32    40    1
    25    41    43   ar
    26    15    19    2
    27    42    43   ar
    28    16    22    2
    29    17    12    1
    30    17    19   ar
    31    17    20   ar
    32    18    19   ar
    33    18    22   ar
    34    18    23    1
    35     9    10    1
    36     9    11    1
    37    10    12    1
    38    11     5    1
    39    33    34    1
    40    33    35    1
    41    34    36    1
    42    35    37    1
    43    37    43    1
    44    20    21   ar
    45    21    22   ar
@<TRIPOS>MOLECULE
*****
 43 45 0 0 0
SMALL
GASTEIGER

@<TRIPOS>ATOM
      1 P          22.9597   71.6620   -2.8310 P.3     1  UNL1        0.2189
      2 O          23.7776   72.9821   -3.2862 O.co2   1  UNL1       -0.4371
      3 O          23.6050   70.3583   -3.1997 O.2     1  UNL1       -0.5170
      4 O          21.4733   71.9025   -3.4231 O.3     1  UNL1       -0.3112
      5 C          20.6030   70.7916   -3.5371 C.3     1  UNL1        0.1811
      6 O          18.7684   71.8812   -4.6438 O.3     1  UNL1       -0.3308
      7 O          17.0224   70.6965   -2.5132 O.3     1  UNL1       -0.3794
      8 O          16.5971   69.0282   -4.6279 O.3     1  UNL1       -0.3779
      9 C          18.1739   70.1420   -3.1496 C.3     1  UNL1        0.1713
     10 C          17.8346   69.7054   -4.5590 C.3     1  UNL1        0.1895
     11 C          19.1644   71.2719   -3.3958 C.3     1  UNL1        0.1764
     12 C          17.8192   71.0291   -5.3042 C.3     1  UNL1        0.2383
     13 H          16.3750   69.9933   -2.3457 H       1  UNL1        0.2105
     14 H          16.6584   68.1921   -4.1389 H       1  UNL1        0.2106
     15 O          16.0263   70.4070   -7.3959 O.2     1  UNL1       -0.2464
     16 O          19.3850   70.5089  -10.5506 O.2     1  UNL1       -0.2670
     17 N          18.1983   70.8871   -6.6815 N.ar    1  UNL1       -0.2551
     18 N          17.7010   70.4573   -8.9650 N.ar    1  UNL1       -0.2743
     19 C          17.2199   70.5728   -7.6541 C.ar    1  UNL1        0.3323
     20 C          19.5249   71.0602   -7.0571 C.ar    1  UNL1        0.0869
     21 C          19.9684   70.9471   -8.3106 C.ar    1  UNL1        0.0795
     22 C          19.0106   70.6198   -9.3871 C.ar    1  UNL1        0.2626
     23 H          17.0388   70.2370   -9.6594 H       1  UNL1        0.1734
     24 O          22.7594   71.8888   -1.2432 O.3     1  UNL1       -0.2703
     25 P          22.4572   70.8396   -0.0509 P.3     1  UNL1        0.2208
     26 O          23.7281   69.8386   -0.1081 O.co2   1  UNL1       -0.4371
     27 O          21.1254   70.1547   -0.1562 O.2     1  UNL1       -0.5170
     28 O          22.6682   71.6885    1.3046 O.3     1  UNL1       -0.2858
     29 O          21.8618   72.4164    3.4091 O.3     1  UNL1       -0.3226
     30 O          21.1645   75.7342    1.0482 O.3     1  UNL1       -0.3794
     31 O          20.6023   73.0520    0.0362 O.3     1  UNL1       -0.3775
     32 O          23.3885   75.7167    2.9202 O.3     1  UNL1       -0.3792
     33 C          21.8524   74.5569    1.4710 C.3     1  UNL1        0.1718
     34 C          20.9088   73.3566    1.3920 C.3     1  UNL1        0.1968
     35 C          22.3186   74.7735    2.9124 C.3     1  UNL1        0.1723
     36 C          21.5333   72.1255    2.0501 C.3     1  UNL1        0.2706
     37 C          22.8107   73.4726    3.5402 C.3     1  UNL1        0.1830
     38 H          20.8588   75.6198    0.1346 H       1  UNL1        0.2105
     39 H          20.2059   73.8289   -0.3876 H       1  UNL1        0.2106
     40 H          23.0885   76.5493    2.5231 H       1  UNL1        0.2106
     41 O          21.9911   72.9044    5.6631 O.co2   1  UNL1       -0.5466
     42 O          23.8062   74.2821    5.5834 O.co2   1  UNL1       -0.5466
     43 C          22.9493   73.6173    5.0207 C.2     1  UNL1        0.0799
@<TRIPOS>UNITY_ATOM_ATTR
2 1
charge -1
26 1
charge -1
41 1
charge -1
@<TRIPOS>BOND
     1     1     4    1
     2     1    24    1
     3     1     2    1
     4     1     3    2
     5    25    28    1
     6    25    24    1
     7    25    26    1
     8    25    27    2
     9     6    11    1
    10     6    12    1
    11    29    36    1
    12    29    37    1
    13     7     9    1
    14     7    13    1
    15     8    10    1
    16     8    14    1
    17     4     5    1
    18    28    36    1
    19    30    33    1
    20    30    38    1
    21    31    34    1
    22    31    39    1
    23    32    35    1
    24    32    40    1
    25    41    43   ar
    26    15    19    2
    27    42    43   ar
    28    16    22    2
    29    17    12    1
    30    17    19   ar
    31    17    20   ar
    32    18    19   ar
    33    18    22   ar
    34    18    23    1
    35     9    10    1
    36     9    11    1
    37    10    12    1
    38    11     5    1
    39    33    34    1
    40    33    35    1
    41    34    36    1
    42    35    37    1
    43    37    43    1
    44    20    21   ar
    45    21    22   ar
@<TRIPOS>MOLECULE
*****
 43 45 0 0 0
SMALL
GASTEIGER

@<TRIPOS>ATOM
      1 P          22.7619   71.6561   -2.1752 P.3     1  UNL1        0.2189
      2 O          23.2450   73.1898   -2.3580 O.co2   1  UNL1       -0.4371
      3 O          23.4206   70.6705   -3.0952 O.2     1  UNL1       -0.5170
      4 O          21.1493   71.7421   -2.2758 O.3     1  UNL1       -0.3112
      5 C          20.5379   71.5259   -3.5343 C.3     1  UNL1        0.1811
      6 O          18.5870   72.2841   -4.7161 O.3     1  UNL1       -0.3308
      7 O          16.9930   71.0838   -2.4778 O.3     1  UNL1       -0.3794
      8 O          16.7804   69.1997   -4.4377 O.3     1  UNL1       -0.3779
      9 C          18.2054   70.6209   -3.0732 C.3     1  UNL1        0.1713
     10 C          17.9257   70.0261   -4.4371 C.3     1  UNL1        0.1895
     11 C          19.0510   71.8376   -3.4236 C.3     1  UNL1        0.1764
     12 C          17.7507   71.2688   -5.2933 C.3     1  UNL1        0.2383
     13 H          16.4359   70.3240   -2.2453 H       1  UNL1        0.2105
     14 H          16.9421   68.4227   -3.8791 H       1  UNL1        0.2106
     15 O          16.0294   70.3365   -7.3291 O.2     1  UNL1       -0.2464
     16 O          19.3836   70.4880  -10.4867 O.2     1  UNL1       -0.2670
     17 N          18.1480   71.0556   -6.6562 N.ar    1  UNL1       -0.2551
     18 N          17.7019   70.4119   -8.8996 N.ar    1  UNL1       -0.2743
     19 C          17.2056   70.5847   -7.6008 C.ar    1  UNL1        0.3323
     20 C          19.4567   71.3137   -7.0456 C.ar    1  UNL1        0.0869
     21 C          19.9150   71.1442   -8.2873 C.ar    1  UNL1        0.0795
     22 C          18.9948   70.6543   -9.3346 C.ar    1  UNL1        0.2626
     23 H          17.0648   70.0829   -9.5743 H       1  UNL1        0.1734
     24 O          23.0138   71.3814   -0.6023 O.3     1  UNL1       -0.2703
     25 P          22.1611   70.5313    0.4766 P.3     1  UNL1        0.2208
     26 O          23.3025   69.8981    1.4339 O.co2   1  UNL1       -0.4371
     27 O          21.2328   69.5200   -0.1312 O.2     1  UNL1       -0.5170
     28 O          21.4335   71.6434    1.3911 O.3     1  UNL1       -0.2858
     29 O          21.9635   73.9262    1.0487 O.3     1  UNL1       -0.3226
     30 O          20.1088   74.0380    4.7387 O.3     1  UNL1       -0.3794
     31 O          22.0074   71.9117    4.0994 O.3     1  UNL1       -0.3775
     32 O          18.6943   74.9451    2.3665 O.3     1  UNL1       -0.3792
     33 C          20.3563   73.5539    3.4187 C.3     1  UNL1        0.1718
     34 C          21.8056   73.0790    3.3111 C.3     1  UNL1        0.1968
     35 C          20.0976   74.7001    2.4383 C.3     1  UNL1        0.1723
     36 C          22.1736   72.7694    1.8594 C.3     1  UNL1        0.2706
     37 C          20.6060   74.3624    1.0397 C.3     1  UNL1        0.1830
     38 H          20.2669   73.3266    5.3791 H       1  UNL1        0.2105
     39 H          21.7756   72.1009    5.0218 H       1  UNL1        0.2106
     40 H          18.3582   75.1611    3.2503 H       1  UNL1        0.2106
     41 O          19.4100   75.9124   -0.2520 O.co2   1  UNL1       -0.5466
     42 O          21.6648   76.2115   -0.0921 O.co2   1  UNL1       -0.5466
     43 C          20.6523   75.5852    0.1825 C.2     1  UNL1        0.0799
@<TRIPOS>UNITY_ATOM_ATTR
2 1
charge -1
26 1
charge -1
41 1
charge -1
@<TRIPOS>BOND
     1     1     4    1
     2     1    24    1
     3     1     2    1
     4     1     3    2
     5    25    28    1
     6    25    24    1
     7    25    26    1
     8    25    27    2
     9     6    11    1
    10     6    12    1
    11    29    36    1
    12    29    37    1
    13     7     9    1
    14     7    13    1
    15     8    10    1
    16     8    14    1
    17     4     5    1
    18    28    36    1
    19    30    33    1
    20    30    38    1
    21    31    34    1
    22    31    39    1
    23    32    35    1
    24    32    40    1
    25    41    43   ar
    26    15    19    2
    27    42    43   ar
    28    16    22    2
    29    17    12    1
    30    17    19   ar
    31    17    20   ar
    32    18    19   ar
    33    18    22   ar
    34    18    23    1
    35     9    10    1
    36     9    11    1
    37    10    12    1
    38    11     5    1
    39    33    34    1
    40    33    35    1
    41    34    36    1
    42    35    37    1
    43    37    43    1
    44    20    21   ar
    45    21    22   ar
@<TRIPOS>MOLECULE
*****
 43 45 0 0 0
SMALL
GASTEIGER

@<TRIPOS>ATOM
      1 P          22.0232   71.0868   -3.1361 P.3     1  UNL1        0.2189
      2 O          23.5006   71.5874   -3.5670 O.co2   1  UNL1       -0.4371
      3 O          21.7816   69.6144   -3.2957 O.2     1  UNL1       -0.5170
      4 O          21.0275   72.0561   -3.9649 O.3     1  UNL1       -0.3112
      5 C          21.4931   73.3379   -4.3451 C.3     1  UNL1        0.1811
      6 O          21.5156   72.1120   -6.4125 O.3     1  UNL1       -0.3308
      7 O          22.7627   74.5520   -7.6302 O.3     1  UNL1       -0.3794
      8 O          20.1587   74.7604   -8.4123 O.3     1  UNL1       -0.3779
      9 C          21.7656   74.4590   -6.6126 C.3     1  UNL1        0.1713
     10 C          20.4355   74.0614   -7.2167 C.3     1  UNL1        0.1895
     11 C          22.0935   73.2533   -5.7425 C.3     1  UNL1        0.1764
     12 C          20.6240   72.5708   -7.4411 C.3     1  UNL1        0.2383
     13 H          22.5744   75.3154   -8.1990 H       1  UNL1        0.2105
     14 H          20.0469   75.7044   -8.2164 H       1  UNL1        0.2106
     15 O          18.8569   72.1460   -9.6029 O.2     1  UNL1       -0.2464
     16 O          15.9194   69.7614   -6.9707 O.2     1  UNL1       -0.2670
     17 N          19.3904   71.8424   -7.3486 N.ar    1  UNL1       -0.2551
     18 N          17.3951   70.9596   -8.2896 N.ar    1  UNL1       -0.2743
     19 C          18.5751   71.6867   -8.4945 C.ar    1  UNL1        0.3323
     20 C          19.0002   71.2904   -6.1346 C.ar    1  UNL1        0.0869
     21 C          17.8726   70.5998   -5.9548 C.ar    1  UNL1        0.0795
     22 C          16.9641   70.3921   -7.1014 C.ar    1  UNL1        0.2626
     23 H          16.8101   70.8397   -9.0724 H       1  UNL1        0.1734
     24 O          21.8830   71.6318   -1.6208 O.3     1  UNL1       -0.2703
     25 P          22.1519   70.9047   -0.2021 P.3     1  UNL1        0.2208
     26 O          23.6325   70.2761   -0.3834 O.co2   1  UNL1       -0.4371
     27 O          21.0999   69.9070    0.1876 O.2     1  UNL1       -0.5170
     28 O          22.3487   72.1143    0.8469 O.3     1  UNL1       -0.2858
     29 O          21.6387   72.5691    3.0601 O.3     1  UNL1       -0.3226
     30 O          21.1332   76.2448    1.2430 O.3     1  UNL1       -0.3794
     31 O          20.3606   73.7903   -0.1402 O.3     1  UNL1       -0.3775
     32 O          23.3873   75.7945    3.0227 O.3     1  UNL1       -0.3792
     33 C          21.7435   74.9733    1.4642 C.3     1  UNL1        0.1718
     34 C          20.7151   73.8653    1.2358 C.3     1  UNL1        0.1968
     35 C          22.2527   74.9378    2.9069 C.3     1  UNL1        0.1723
     36 C          21.2631   72.5096    1.6836 C.3     1  UNL1        0.2706
     37 C          22.6630   73.5268    3.3182 C.3     1  UNL1        0.1830
     38 H          20.8018   76.2905    0.3323 H       1  UNL1        0.2105
     39 H          20.0123   74.6473   -0.4311 H       1  UNL1        0.2106
     40 H          23.1396   76.6958    2.7635 H       1  UNL1        0.2106
     41 O          23.9785   74.0671    5.1834 O.co2   1  UNL1       -0.5466
     42 O          22.0720   72.8762    5.5652 O.co2   1  UNL1       -0.5466
     43 C          22.8412   73.4366    4.7989 C.2     1  UNL1        0.0799
@<TRIPOS>UNITY_ATOM_ATTR
2 1
charge -1
26 1
charge -1
41 1
charge -1
@<TRIPOS>BOND
     1     1     4    1
     2     1    24    1
     3     1     2    1
     4     1     3    2
     5    25    28    1
     6    25    24    1
     7    25    26    1
     8    25    27    2
     9     6    11    1
    10     6    12    1
    11    29    36    1
    12    29    37    1
    13     7     9    1
    14     7    13    1
    15     8    10    1
    16     8    14    1
    17     4     5    1
    18    28    36    1
    19    30    33    1
    20    30    38    1
    21    31    34    1
    22    31    39    1
    23    32    35    1
    24    32    40    1
    25    41    43   ar
    26    15    19    2
    27    42    43   ar
    28    16    22    2
    29    17    12    1
    30    17    19   ar
    31    17    20   ar
    32    18    19   ar
    33    18    22   ar
    34    18    23    1
    35     9    10    1
    36     9    11    1
    37    10    12    1
    38    11     5    1
    39    33    34    1
    40    33    35    1
    41    34    36    1
    42    35    37    1
    43    37    43    1
    44    20    21   ar
    45    21    22   ar
@<TRIPOS>MOLECULE
*****
 43 45 0 0 0
SMALL
GASTEIGER

@<TRIPOS>ATOM
      1 P          22.8586   72.0104   -2.9681 P.3     1  UNL1        0.2189
      2 O          23.7560   70.6711   -2.8274 O.co2   1  UNL1       -0.4371
      3 O          22.3721   72.5863   -1.6706 O.2     1  UNL1       -0.5170
      4 O          21.7085   71.5977   -4.0287 O.3     1  UNL1       -0.3112
      5 C          20.8058   70.5645   -3.6793 C.3     1  UNL1        0.1811
      6 O          19.0233   71.8039   -4.7109 O.3     1  UNL1       -0.3308
      7 O          17.2766   70.7693   -2.5041 O.3     1  UNL1       -0.3794
      8 O          16.6237   69.1427   -4.5930 O.3     1  UNL1       -0.3779
      9 C          18.3496   70.1205   -3.1868 C.3     1  UNL1        0.1713
     10 C          17.9153   69.7139   -4.5790 C.3     1  UNL1        0.1895
     11 C          19.4197   71.1635   -3.4788 C.3     1  UNL1        0.1764
     12 C          17.9788   71.0343   -5.3275 C.3     1  UNL1        0.2383
     13 H          16.5805   70.1227   -2.3067 H       1  UNL1        0.2105
     14 H          16.6357   68.3043   -4.1041 H       1  UNL1        0.2106
     15 O          16.0548   70.5439   -7.3360 O.2     1  UNL1       -0.2464
     16 O          19.2707   70.3864  -10.6340 O.2     1  UNL1       -0.2670
     17 N          18.2858   70.8612   -6.7191 N.ar    1  UNL1       -0.2551
     18 N          17.6584   70.4649   -8.9765 N.ar    1  UNL1       -0.2743
     19 C          17.2450   70.6191   -7.6467 C.ar    1  UNL1        0.3323
     20 C          19.6040   70.9334   -7.1528 C.ar    1  UNL1        0.0869
     21 C          19.9825   70.7845   -8.4238 C.ar    1  UNL1        0.0795
     22 C          18.9568   70.5277   -9.4559 C.ar    1  UNL1        0.2626
     23 H          16.9518   70.2934   -9.6403 H       1  UNL1        0.1734
     24 O          23.8091   72.9955   -3.8277 O.3     1  UNL1       -0.2703
     25 P          24.2520   74.5297   -3.5757 P.3     1  UNL1        0.2208
     26 O          24.4791   74.5908   -1.9741 O.co2   1  UNL1       -0.4371
     27 O          23.2798   75.5457   -4.1015 O.2     1  UNL1       -0.5170
     28 O          25.7351   74.6357   -4.2015 O.3     1  UNL1       -0.2858
     29 O          27.3076   75.8997   -2.9611 O.3     1  UNL1       -0.3226
     30 O          29.2750   75.4092   -6.5607 O.3     1  UNL1       -0.3794
     31 O          26.4218   76.0340   -6.5057 O.3     1  UNL1       -0.3775
     32 O          30.0623   73.8423   -4.2421 O.3     1  UNL1       -0.3792
     33 C          28.3950   75.0469   -5.4967 C.3     1  UNL1        0.1718
     34 C          27.2833   76.0893   -5.3745 C.3     1  UNL1        0.1968
     35 C          29.2137   74.9881   -4.2051 C.3     1  UNL1        0.1723
     36 C          26.4571   75.8623   -4.1077 C.3     1  UNL1        0.2706
     37 C          28.3121   74.8878   -2.9781 C.3     1  UNL1        0.1830
     38 H          28.7767   75.4529   -7.3920 H       1  UNL1        0.2105
     39 H          26.9395   76.1770   -7.3131 H       1  UNL1        0.2106
     40 H          30.6413   73.8937   -5.0187 H       1  UNL1        0.2106
     41 O          29.7646   74.0555   -1.3352 O.co2   1  UNL1       -0.5466
     42 O          29.1074   76.2300   -1.1376 O.co2   1  UNL1       -0.5466
     43 C          29.0844   75.1607   -1.7285 C.2     1  UNL1        0.0799
@<TRIPOS>UNITY_ATOM_ATTR
2 1
charge -1
26 1
charge -1
41 1
charge -1
@<TRIPOS>BOND
     1     1     4    1
     2     1    24    1
     3     1     2    1
     4     1     3    2
     5    25    28    1
     6    25    24    1
     7    25    26    1
     8    25    27    2
     9     6    11    1
    10     6    12    1
    11    29    36    1
    12    29    37    1
    13     7     9    1
    14     7    13    1
    15     8    10    1
    16     8    14    1
    17     4     5    1
    18    28    36    1
    19    30    33    1
    20    30    38    1
    21    31    34    1
    22    31    39    1
    23    32    35    1
    24    32    40    1
    25    41    43   ar
    26    15    19    2
    27    42    43   ar
    28    16    22    2
    29    17    12    1
    30    17    19   ar
    31    17    20   ar
    32    18    19   ar
    33    18    22   ar
    34    18    23    1
    35     9    10    1
    36     9    11    1
    37    10    12    1
    38    11     5    1
    39    33    34    1
    40    33    35    1
    41    34    36    1
    42    35    37    1
    43    37    43    1
    44    20    21   ar
    45    21    22   ar
@<TRIPOS>MOLECULE
*****
 43 45 0 0 0
SMALL
GASTEIGER

@<TRIPOS>ATOM
      1 P          22.6506   72.4999   -3.9632 P.3     1  UNL1        0.2189
      2 O          23.1828   73.2406   -5.3000 O.co2   1  UNL1       -0.4371
      3 O          23.6434   71.5852   -3.3079 O.2     1  UNL1       -0.5170
      4 O          21.2613   71.8124   -4.4269 O.3     1  UNL1       -0.3112
      5 C          20.5932   70.9577   -3.5172 C.3     1  UNL1        0.1811
      6 O          18.7313   71.9758   -4.6461 O.3     1  UNL1       -0.3308
      7 O          17.0193   70.8137   -2.4758 O.3     1  UNL1       -0.3794
      8 O          16.6229   69.0779   -4.5412 O.3     1  UNL1       -0.3779
      9 C          18.1803   70.2667   -3.1013 C.3     1  UNL1        0.1713
     10 C          17.8455   69.7834   -4.4965 C.3     1  UNL1        0.1895
     11 C          19.1450   71.4105   -3.3833 C.3     1  UNL1        0.1764
     12 C          17.7984   71.0851   -5.2784 C.3     1  UNL1        0.2383
     13 H          16.3881   70.1016   -2.2859 H       1  UNL1        0.2105
     14 H          16.7042   68.2574   -4.0292 H       1  UNL1        0.2106
     15 O          16.0019   70.4202   -7.3537 O.2     1  UNL1       -0.2464
     16 O          19.3566   70.4491  -10.5143 O.2     1  UNL1       -0.2670
     17 N          18.1756   70.9127   -6.6528 N.ar    1  UNL1       -0.2551
     18 N          17.6746   70.4342   -8.9257 N.ar    1  UNL1       -0.2743
     19 C          17.1954   70.5787   -7.6171 C.ar    1  UNL1        0.3323
     20 C          19.5019   71.0758   -7.0337 C.ar    1  UNL1        0.0869
     21 C          19.9435   70.9349   -8.2851 C.ar    1  UNL1        0.0795
     22 C          18.9839   70.5857   -9.3530 C.ar    1  UNL1        0.2626
     23 H          17.0111   70.1999   -9.6143 H       1  UNL1        0.1734
     24 O          22.1564   73.7304   -3.0388 O.3     1  UNL1       -0.2703
     25 P          22.9617   74.6597   -1.9893 P.3     1  UNL1        0.2208
     26 O          22.2591   76.1077   -2.1626 O.co2   1  UNL1       -0.4371
     27 O          24.4497   74.6666   -2.1885 O.2     1  UNL1       -0.5170
     28 O          22.4830   74.1462   -0.5368 O.3     1  UNL1       -0.2858
     29 O          21.5484   71.9922   -0.2269 O.3     1  UNL1       -0.3226
     30 O          20.2250   73.9763    3.1466 O.3     1  UNL1       -0.3794
     31 O          20.1938   75.2998    0.5424 O.3     1  UNL1       -0.3775
     32 O          22.4080   72.0663    3.3393 O.3     1  UNL1       -0.3792
     33 C          21.1273   73.6740    2.0824 C.3     1  UNL1        0.1718
     34 C          20.4339   73.9114    0.7406 C.3     1  UNL1        0.1968
     35 C          21.5409   72.2067    2.2155 C.3     1  UNL1        0.1723
     36 C          21.2841   73.3829   -0.4156 C.3     1  UNL1        0.2706
     37 C          22.2747   71.7195    0.9694 C.3     1  UNL1        0.1830
     38 H          19.9483   74.9040    3.0825 H       1  UNL1        0.2105
     39 H          19.6550   75.6418    1.2726 H       1  UNL1        0.2106
     40 H          21.9531   72.3732    4.1391 H       1  UNL1        0.2106
     41 O          23.4534   69.8236    1.6890 O.co2   1  UNL1       -0.5466
     42 O          21.6106   69.4727    0.3929 O.co2   1  UNL1       -0.5466
     43 C          22.3809   70.2292    0.9650 C.2     1  UNL1        0.0799
@<TRIPOS>UNITY_ATOM_ATTR
2 1
charge -1
26 1
charge -1
41 1
charge -1
@<TRIPOS>BOND
     1     1     4    1
     2     1    24    1
     3     1     2    1
     4     1     3    2
     5    25    28    1
     6    25    24    1
     7    25    26    1
     8    25    27    2
     9     6    11    1
    10     6    12    1
    11    29    36    1
    12    29    37    1
    13     7     9    1
    14     7    13    1
    15     8    10    1
    16     8    14    1
    17     4     5    1
    18    28    36    1
    19    30    33    1
    20    30    38    1
    21    31    34    1
    22    31    39    1
    23    32    35    1
    24    32    40    1
    25    41    43   ar
    26    15    19    2
    27    42    43   ar
    28    16    22    2
    29    17    12    1
    30    17    19   ar
    31    17    20   ar
    32    18    19   ar
    33    18    22   ar
    34    18    23    1
    35     9    10    1
    36     9    11    1
    37    10    12    1
    38    11     5    1
    39    33    34    1
    40    33    35    1
    41    34    36    1
    42    35    37    1
    43    37    43    1
    44    20    21   ar
    45    21    22   ar
@<TRIPOS>MOLECULE
*****
 43 45 0 0 0
SMALL
GASTEIGER

@<TRIPOS>ATOM
      1 P          22.2890   73.0296   -3.9600 P.3     1  UNL1        0.2189
      2 O          23.8245   72.5578   -4.1563 O.co2   1  UNL1       -0.4371
      3 O          21.9422   73.4990   -2.5775 O.2     1  UNL1       -0.5170
      4 O          21.4245   71.7797   -4.5151 O.3     1  UNL1       -0.3112
      5 C          20.7678   70.9435   -3.5802 C.3     1  UNL1        0.1811
      6 O          18.8948   71.9913   -4.6627 O.3     1  UNL1       -0.3308
      7 O          17.2207   70.8655   -2.4443 O.3     1  UNL1       -0.3794
      8 O          16.7392   69.1314   -4.4930 O.3     1  UNL1       -0.3779
      9 C          18.3550   70.2963   -3.0986 C.3     1  UNL1        0.1713
     10 C          17.9748   69.8153   -4.4829 C.3     1  UNL1        0.1895
     11 C          19.3318   71.4221   -3.4095 C.3     1  UNL1        0.1764
     12 C          17.9300   71.1156   -5.2673 C.3     1  UNL1        0.2383
     13 H          16.5823   70.1651   -2.2355 H       1  UNL1        0.2105
     14 H          16.8196   68.3110   -3.9808 H       1  UNL1        0.2106
     15 O          16.0824   70.3937   -7.2778 O.2     1  UNL1       -0.2464
     16 O          19.3367   70.4425  -10.5414 O.2     1  UNL1       -0.2670
     17 N          18.2675   70.9329   -6.6506 N.ar    1  UNL1       -0.2551
     18 N          17.7052   70.4177   -8.9011 N.ar    1  UNL1       -0.2743
     19 C          17.2642   70.5699   -7.5800 C.ar    1  UNL1        0.3323
     20 C          19.5783   71.1146   -7.0746 C.ar    1  UNL1        0.0869
     21 C          19.9835   70.9660   -8.3373 C.ar    1  UNL1        0.0795
     22 C          18.9977   70.5869   -9.3707 C.ar    1  UNL1        0.2626
     23 H          17.0251   70.1633   -9.5659 H       1  UNL1        0.1734
     24 O          22.1010   74.1435   -5.1162 O.3     1  UNL1       -0.2703
     25 P          22.5905   75.6822   -5.1974 P.3     1  UNL1        0.2208
     26 O          24.0063   75.6617   -4.4129 O.co2   1  UNL1       -0.4371
     27 O          21.5994   76.6729   -4.6589 O.2     1  UNL1       -0.5170
     28 O          22.9860   75.9047   -6.7455 O.3     1  UNL1       -0.2858
     29 O          24.9683   76.6854   -7.7799 O.3     1  UNL1       -0.3226
     30 O          22.0556   78.2415  -10.2623 O.3     1  UNL1       -0.3794
     31 O          21.7154   78.3009   -7.3614 O.3     1  UNL1       -0.3775
     32 O          23.6048   75.9291  -11.1012 O.3     1  UNL1       -0.3792
     33 C          22.6335   77.2913   -9.3674 C.3     1  UNL1        0.1718
     34 C          22.9275   77.9642   -8.0264 C.3     1  UNL1        0.1968
     35 C          23.9282   76.7739   -9.9984 C.3     1  UNL1        0.1723
     36 C          23.7528   77.0467   -7.1231 C.3     1  UNL1        0.2706
     37 C          24.7549   75.9731   -8.9965 C.3     1  UNL1        0.1830
     38 H          21.2313   78.5842   -9.8823 H       1  UNL1        0.2105
     39 H          21.1866   78.8828   -7.9291 H       1  UNL1        0.2106
     40 H          23.0784   76.4268  -11.7463 H       1  UNL1        0.2106
     41 O          26.9531   75.3116   -8.5147 O.co2   1  UNL1       -0.5466
     42 O          26.5050   75.9499  -10.6573 O.co2   1  UNL1       -0.5466
     43 C          26.1426   75.7569   -9.5065 C.2     1  UNL1        0.0799
@<TRIPOS>UNITY_ATOM_ATTR
2 1
charge -1
26 1
charge -1
41 1
charge -1
@<TRIPOS>BOND
     1     1     4    1
     2     1    24    1
     3     1     2    1
     4     1     3    2
     5    25    28    1
     6    25    24    1
     7    25    26    1
     8    25    27    2
     9     6    11    1
    10     6    12    1
    11    29    36    1
    12    29    37    1
    13     7     9    1
    14     7    13    1
    15     8    10    1
    16     8    14    1
    17     4     5    1
    18    28    36    1
    19    30    33    1
    20    30    38    1
    21    31    34    1
    22    31    39    1
    23    32    35    1
    24    32    40    1
    25    41    43   ar
    26    15    19    2
    27    42    43   ar
    28    16    22    2
    29    17    12    1
    30    17    19   ar
    31    17    20   ar
    32    18    19   ar
    33    18    22   ar
    34    18    23    1
    35     9    10    1
    36     9    11    1
    37    10    12    1
    38    11     5    1
    39    33    34    1
    40    33    35    1
    41    34    36    1
    42    35    37    1
    43    37    43    1
    44    20    21   ar
    45    21    22   ar
@<TRIPOS>MOLECULE
*****
 43 45 0 0 0
SMALL
GASTEIGER

@<TRIPOS>ATOM
      1 P          22.4133   73.0157   -4.5927 P.3     1  UNL1        0.2189
      2 O          22.6078   73.7298   -6.0318 O.co2   1  UNL1       -0.4371
      3 O          23.6668   72.4517   -3.9907 O.2     1  UNL1       -0.5170
      4 O          21.2160   71.9566   -4.8432 O.3     1  UNL1       -0.3112
      5 C          20.6712   71.2757   -3.7278 C.3     1  UNL1        0.1811
      6 O          18.7355   72.1553   -4.8489 O.3     1  UNL1       -0.3308
      7 O          17.1355   71.0149   -2.5837 O.3     1  UNL1       -0.3794
      8 O          16.7692   69.1713   -4.5593 O.3     1  UNL1       -0.3779
      9 C          18.3048   70.4941   -3.2162 C.3     1  UNL1        0.1713
     10 C          17.9579   69.9335   -4.5791 C.3     1  UNL1        0.1895
     11 C          19.2071   71.6671   -3.5743 C.3     1  UNL1        0.1764
     12 C          17.8299   71.1951   -5.4158 C.3     1  UNL1        0.2383
     13 H          16.5435   70.2838   -2.3455 H       1  UNL1        0.2105
     14 H          16.9019   68.3793   -4.0143 H       1  UNL1        0.2106
     15 O          16.0106   70.3742   -7.4140 O.2     1  UNL1       -0.2464
     16 O          19.2836   70.3949  -10.6592 O.2     1  UNL1       -0.2670
     17 N          18.1798   70.9784   -6.7911 N.ar    1  UNL1       -0.2551
     18 N          17.6427   70.3843   -9.0282 N.ar    1  UNL1       -0.2743
     19 C          17.1903   70.5665   -7.7147 C.ar    1  UNL1        0.3323
     20 C          19.4891   71.1752   -7.2129 C.ar    1  UNL1        0.0869
     21 C          19.9053   70.9977   -8.4683 C.ar    1  UNL1        0.0795
     22 C          18.9342   70.5669   -9.4954 C.ar    1  UNL1        0.2626
     23 H          16.9723   70.0956   -9.6889 H       1  UNL1        0.1734
     24 O          21.7011   74.1670   -3.7095 O.3     1  UNL1       -0.2703
     25 P          21.9873   74.6785   -2.2028 P.3     1  UNL1        0.2208
     26 O          20.6462   75.5056   -1.8320 O.co2   1  UNL1       -0.4371
     27 O          23.2590   75.4614   -2.0494 O.2     1  UNL1       -0.5170
     28 O          21.9078   73.3463   -1.2964 O.3     1  UNL1       -0.2858
     29 O          23.3143   73.5349    0.5998 O.3     1  UNL1       -0.3226
     30 O          21.9334   69.6578    0.9595 O.3     1  UNL1       -0.3794
     31 O          22.7265   70.7114   -1.6473 O.3     1  UNL1       -0.3775
     32 O          20.8646   71.7519    2.6691 O.3     1  UNL1       -0.3792
     33 C          21.8655   71.0370    0.5974 C.3     1  UNL1        0.1718
     34 C          22.9747   71.3583   -0.4045 C.3     1  UNL1        0.1968
     35 C          22.0401   71.8691    1.8698 C.3     1  UNL1        0.1723
     36 C          23.0795   72.8658   -0.6399 C.3     1  UNL1        0.2706
     37 C          22.2642   73.3432    1.5451 C.3     1  UNL1        0.1830
     38 H          21.8250   69.1094    0.1665 H       1  UNL1        0.2105
     39 H          22.6585   69.7546   -1.5054 H       1  UNL1        0.2106
     40 H          20.7105   70.8184    2.8827 H       1  UNL1        0.2106
     41 O          22.0919   75.2560    2.8915 O.co2   1  UNL1       -0.5466
     42 O          23.6324   73.6896    3.5020 O.co2   1  UNL1       -0.5466
     43 C          22.7556   74.0823    2.7469 C.2     1  UNL1        0.0799
@<TRIPOS>UNITY_ATOM_ATTR
2 1
charge -1
26 1
charge -1
41 1
charge -1
@<TRIPOS>BOND
     1     1     4    1
     2     1    24    1
     3     1     2    1
     4     1     3    2
     5    25    28    1
     6    25    24    1
     7    25    26    1
     8    25    27    2
     9     6    11    1
    10     6    12    1
    11    29    36    1
    12    29    37    1
    13     7     9    1
    14     7    13    1
    15     8    10    1
    16     8    14    1
    17     4     5    1
    18    28    36    1
    19    30    33    1
    20    30    38    1
    21    31    34    1
    22    31    39    1
    23    32    35    1
    24    32    40    1
    25    41    43   ar
    26    15    19    2
    27    42    43   ar
    28    16    22    2
    29    17    12    1
    30    17    19   ar
    31    17    20   ar
    32    18    19   ar
    33    18    22   ar
    34    18    23    1
    35     9    10    1
    36     9    11    1
    37    10    12    1
    38    11     5    1
    39    33    34    1
    40    33    35    1
    41    34    36    1
    42    35    37    1
    43    37    43    1
    44    20    21   ar
    45    21    22   ar
@<TRIPOS>MOLECULE
*****
 43 45 0 0 0
SMALL
GASTEIGER

@<TRIPOS>ATOM
      1 P          22.0336   71.5103   -1.5148 P.3     1  UNL1        0.2189
      2 O          22.8511   72.2889   -2.6743 O.co2   1  UNL1       -0.4371
      3 O          22.2692   70.0294   -1.4589 O.2     1  UNL1       -0.5170
      4 O          20.4994   71.9694   -1.7460 O.3     1  UNL1       -0.3112
      5 C          20.0369   72.1382   -3.0735 C.3     1  UNL1        0.1811
      6 O          18.0771   72.6459   -4.3693 O.3     1  UNL1       -0.3308
      7 O          16.5397   71.1124   -2.3014 O.3     1  UNL1       -0.3794
      8 O          16.7561   69.3130   -4.3389 O.3     1  UNL1       -0.3779
      9 C          17.8469   70.8681   -2.8210 C.3     1  UNL1        0.1713
     10 C          17.7566   70.3030   -4.2227 C.3     1  UNL1        0.1895
     11 C          18.5155   72.2145   -3.0628 C.3     1  UNL1        0.1764
     12 C          17.4497   71.5438   -5.0438 C.3     1  UNL1        0.2383
     13 H          16.0927   70.2666   -2.1389 H       1  UNL1        0.2105
     14 H          16.9978   68.5441   -3.7984 H       1  UNL1        0.2106
     15 O          16.1045   70.3107   -7.1994 O.2     1  UNL1       -0.2464
     16 O          19.5308   71.2751  -10.1276 O.2     1  UNL1       -0.2670
     17 N          17.9673   71.4584   -6.3801 N.ar    1  UNL1       -0.2551
     18 N          17.8128   70.7913   -8.6555 N.ar    1  UNL1       -0.2743
     19 C          17.2117   70.8174   -7.3902 C.ar    1  UNL1        0.3323
     20 C          19.2085   72.0068   -6.6795 C.ar    1  UNL1        0.0869
     21 C          19.7684   71.9742   -7.8904 C.ar    1  UNL1        0.0795
     22 C          19.0448   71.3222   -9.0016 C.ar    1  UNL1        0.2626
     23 H          17.3065   70.3485   -9.3745 H       1  UNL1        0.1734
     24 O          22.4542   72.3101   -0.1746 O.3     1  UNL1       -0.2703
     25 P          22.8280   73.8654    0.0601 P.3     1  UNL1        0.2208
     26 O          21.6419   74.6514   -0.7119 O.co2   1  UNL1       -0.4371
     27 O          24.2113   74.2404   -0.3867 O.2     1  UNL1       -0.5170
     28 O          22.5366   74.1247    1.6254 O.3     1  UNL1       -0.2858
     29 O          23.9063   73.7051    3.5115 O.3     1  UNL1       -0.3226
     30 O          20.1257   73.1208    5.0714 O.3     1  UNL1       -0.3794
     31 O          20.8094   72.0956    2.4226 O.3     1  UNL1       -0.3775
     32 O          21.5941   75.5553    5.6777 O.3     1  UNL1       -0.3792
     33 C          21.1052   73.7056    4.2133 C.3     1  UNL1        0.1718
     34 C          21.7495   72.6165    3.3551 C.3     1  UNL1        0.1968
     35 C          22.1589   74.3840    5.0917 C.3     1  UNL1        0.1723
     36 C          22.9568   73.1637    2.5923 C.3     1  UNL1        0.2706
     37 C          23.3855   74.7881    4.2788 C.3     1  UNL1        0.1830
     38 H          19.4454   72.6836    4.5352 H       1  UNL1        0.2105
     39 H          20.0406   71.7469    2.8998 H       1  UNL1        0.2106
     40 H          20.8124   75.3119    6.1978 H       1  UNL1        0.2106
     41 O          25.6384   74.4464    4.8349 O.co2   1  UNL1       -0.5466
     42 O          24.4712   75.9444    6.0970 O.co2   1  UNL1       -0.5466
     43 C          24.5252   75.1407    5.1782 C.2     1  UNL1        0.0799
@<TRIPOS>UNITY_ATOM_ATTR
2 1
charge -1
26 1
charge -1
41 1
charge -1
@<TRIPOS>BOND
     1     1     4    1
     2     1    24    1
     3     1     2    1
     4     1     3    2
     5    25    28    1
     6    25    24    1
     7    25    26    1
     8    25    27    2
     9     6    11    1
    10     6    12    1
    11    29    36    1
    12    29    37    1
    13     7     9    1
    14     7    13    1
    15     8    10    1
    16     8    14    1
    17     4     5    1
    18    28    36    1
    19    30    33    1
    20    30    38    1
    21    31    34    1
    22    31    39    1
    23    32    35    1
    24    32    40    1
    25    41    43   ar
    26    15    19    2
    27    42    43   ar
    28    16    22    2
    29    17    12    1
    30    17    19   ar
    31    17    20   ar
    32    18    19   ar
    33    18    22   ar
    34    18    23    1
    35     9    10    1
    36     9    11    1
    37    10    12    1
    38    11     5    1
    39    33    34    1
    40    33    35    1
    41    34    36    1
    42    35    37    1
    43    37    43    1
    44    20    21   ar
    45    21    22   ar
@<TRIPOS>MOLECULE
*****
 43 45 0 0 0
SMALL
GASTEIGER

@<TRIPOS>ATOM
      1 P          22.3382   73.3920   -5.2747 P.3     1  UNL1        0.2189
      2 O          22.5244   74.9486   -5.6763 O.co2   1  UNL1       -0.4371
      3 O          23.5573   72.7373   -4.6943 O.2     1  UNL1       -0.5170
      4 O          21.7481   72.7119   -6.6190 O.3     1  UNL1       -0.3112
      5 C          20.7979   73.4337   -7.3809 C.3     1  UNL1        0.1811
      6 O          20.0307   71.1945   -7.7993 O.3     1  UNL1       -0.3308
      7 O          18.4991   72.3490  -10.1043 O.3     1  UNL1       -0.3794
      8 O          16.5758   72.0688   -8.1915 O.3     1  UNL1       -0.3779
      9 C          18.7658   72.9167   -8.8217 C.3     1  UNL1        0.1713
     10 C          17.9099   72.2504   -7.7653 C.3     1  UNL1        0.1895
     11 C          20.1692   72.4980   -8.4053 C.3     1  UNL1        0.1764
     12 C          18.6397   70.9353   -7.5515 C.3     1  UNL1        0.2383
     13 H          17.6075   72.6028  -10.3915 H       1  UNL1        0.2105
     14 H          16.1546   72.9346   -8.3133 H       1  UNL1        0.2106
     15 O          16.3005   69.6972   -6.5657 O.2     1  UNL1       -0.2464
     16 O          18.1734   69.0583   -2.4030 O.2     1  UNL1       -0.2670
     17 N          18.4889   70.4361   -6.2140 N.ar    1  UNL1       -0.2551
     18 N          17.2352   69.3811   -4.4931 N.ar    1  UNL1       -0.2743
     19 C          17.2721   69.8312   -5.8194 C.ar    1  UNL1        0.3323
     20 C          19.5385   70.5463   -5.3101 C.ar    1  UNL1        0.0869
     21 C          19.4884   70.1124   -4.0491 C.ar    1  UNL1        0.0795
     22 C          18.2527   69.4690   -3.5568 C.ar    1  UNL1        0.2626
     23 H          16.3977   68.9583   -4.1947 H       1  UNL1        0.1734
     24 O          21.0567   73.4221   -4.2900 O.3     1  UNL1       -0.2703
     25 P          20.8860   73.9930   -2.7871 P.3     1  UNL1        0.2208
     26 O          19.2917   74.2456   -2.6662 O.co2   1  UNL1       -0.4371
     27 O          21.7278   75.1996   -2.4875 O.2     1  UNL1       -0.5170
     28 O          21.1708   72.7242   -1.8325 O.3     1  UNL1       -0.2858
     29 O          22.9217   73.2759   -0.3361 O.3     1  UNL1       -0.3226
     30 O          22.1111   69.3659    0.7236 O.3     1  UNL1       -0.3794
     31 O          22.1949   70.1510   -2.0891 O.3     1  UNL1       -0.3775
     32 O          21.2005   71.5531    2.4083 O.3     1  UNL1       -0.3792
     33 C          21.8068   70.6769    0.2473 C.3     1  UNL1        0.1718
     34 C          22.6286   70.9687   -1.0084 C.3     1  UNL1        0.1968
     35 C          22.1541   71.6747    1.3545 C.3     1  UNL1        0.1723
     36 C          22.5043   72.4379   -1.4145 C.3     1  UNL1        0.2706
     37 C          22.1300   73.1104    0.8381 C.3     1  UNL1        0.1830
     38 H          21.8985   68.7147    0.0365 H       1  UNL1        0.2105
     39 H          22.2708   69.2173   -1.8383 H       1  UNL1        0.2106
     40 H          21.2057   70.6437    2.7457 H       1  UNL1        0.2106
     41 O          23.2065   73.3565    2.9074 O.co2   1  UNL1       -0.5466
     42 O          22.9150   75.2402    1.6561 O.co2   1  UNL1       -0.5466
     43 C          22.7800   74.0362    1.8142 C.2     1  UNL1        0.0799
@<TRIPOS>UNITY_ATOM_ATTR
2 1
charge -1
26 1
charge -1
41 1
charge -1
@<TRIPOS>BOND
     1     1     4    1
     2     1    24    1
     3     1     2    1
     4     1     3    2
     5    25    28    1
     6    25    24    1
     7    25    26    1
     8    25    27    2
     9     6    11    1
    10     6    12    1
    11    29    36    1
    12    29    37    1
    13     7     9    1
    14     7    13    1
    15     8    10    1
    16     8    14    1
    17     4     5    1
    18    28    36    1
    19    30    33    1
    20    30    38    1
    21    31    34    1
    22    31    39    1
    23    32    35    1
    24    32    40    1
    25    41    43   ar
    26    15    19    2
    27    42    43   ar
    28    16    22    2
    29    17    12    1
    30    17    19   ar
    31    17    20   ar
    32    18    19   ar
    33    18    22   ar
    34    18    23    1
    35     9    10    1
    36     9    11    1
    37    10    12    1
    38    11     5    1
    39    33    34    1
    40    33    35    1
    41    34    36    1
    42    35    37    1
    43    37    43    1
    44    20    21   ar
    45    21    22   ar
@<TRIPOS>MOLECULE
*****
 43 45 0 0 0
SMALL
GASTEIGER

@<TRIPOS>ATOM
      1 P          21.5782   74.8380   -7.0556 P.3     1  UNL1        0.2189
      2 O          20.7092   76.1228   -7.5172 O.co2   1  UNL1       -0.4371
      3 O          22.9773   75.1466   -6.6094 O.2     1  UNL1       -0.5170
      4 O          21.4477   73.8131   -8.3007 O.3     1  UNL1       -0.3112
      5 C          21.4147   72.4234   -8.0319 C.3     1  UNL1        0.1811
      6 O          19.8658   70.5977   -8.2449 O.3     1  UNL1       -0.3308
      7 O          18.5331   72.2219  -10.3843 O.3     1  UNL1       -0.3794
      8 O          16.9131   72.6314   -8.2293 O.3     1  UNL1       -0.3779
      9 C          19.1534   72.6568   -9.1741 C.3     1  UNL1        0.1713
     10 C          18.2718   72.3316   -7.9870 C.3     1  UNL1        0.1895
     11 C          20.3657   71.7706   -8.9229 C.3     1  UNL1        0.1764
     12 C          18.5194   70.8434   -7.8086 C.3     1  UNL1        0.2383
     13 H          17.7556   72.7735  -10.5658 H       1  UNL1        0.2105
     14 H          16.8076   73.5904   -8.3355 H       1  UNL1        0.2106
     15 O          16.1312   69.8641   -6.6622 O.2     1  UNL1       -0.2464
     16 O          18.1319   69.2717   -2.5524 O.2     1  UNL1       -0.2670
     17 N          18.3882   70.4261   -6.4413 N.ar    1  UNL1       -0.2551
     18 N          17.1297   69.5710   -4.6161 N.ar    1  UNL1       -0.2743
     19 C          17.1439   69.9498   -5.9650 C.ar    1  UNL1        0.3323
     20 C          19.4837   70.4892   -5.5887 C.ar    1  UNL1        0.0869
     21 C          19.4548   70.1244   -4.3054 C.ar    1  UNL1        0.0795
     22 C          18.1928   69.6162   -3.7288 C.ar    1  UNL1        0.2626
     23 H          16.2738   69.2380   -4.2612 H       1  UNL1        0.1734
     24 O          20.6457   74.1566   -5.9247 O.3     1  UNL1       -0.2703
     25 P          20.2514   74.6488   -4.4361 P.3     1  UNL1        0.2208
     26 O          18.6371   74.5291   -4.4225 O.co2   1  UNL1       -0.4371
     27 O          20.7736   76.0103   -4.0792 O.2     1  UNL1       -0.5170
     28 O          20.7558   73.4627   -3.4659 O.3     1  UNL1       -0.2858
     29 O          21.7510   73.4121   -1.3174 O.3     1  UNL1       -0.3226
     30 O          23.7745   70.3745   -3.2530 O.3     1  UNL1       -0.3794
     31 O          23.2189   72.8930   -4.6253 O.3     1  UNL1       -0.3775
     32 O          21.7018   69.7433   -1.3148 O.3     1  UNL1       -0.3792
     33 C          22.6611   71.2187   -2.9604 C.3     1  UNL1        0.1718
     34 C          23.0385   72.6754   -3.2307 C.3     1  UNL1        0.1968
     35 C          22.2975   71.0279   -1.4861 C.3     1  UNL1        0.1723
     36 C          21.9572   73.6256   -2.7143 C.3     1  UNL1        0.2706
     37 C          21.3095   72.0906   -1.0140 C.3     1  UNL1        0.1830
     38 H          24.0235   70.4789   -4.1849 H       1  UNL1        0.2105
     39 H          23.9036   72.2931   -4.9597 H       1  UNL1        0.2106
     40 H          22.3204   69.0578   -1.6119 H       1  UNL1        0.2106
     41 O          20.8300   73.3237    0.9228 O.co2   1  UNL1       -0.5466
     42 O          21.4495   71.1472    1.2023 O.co2   1  UNL1       -0.5466
     43 C          21.2155   72.1024    0.4771 C.2     1  UNL1        0.0799
@<TRIPOS>UNITY_ATOM_ATTR
2 1
charge -1
26 1
charge -1
41 1
charge -1
@<TRIPOS>BOND
     1     1     4    1
     2     1    24    1
     3     1     2    1
     4     1     3    2
     5    25    28    1
     6    25    24    1
     7    25    26    1
     8    25    27    2
     9     6    11    1
    10     6    12    1
    11    29    36    1
    12    29    37    1
    13     7     9    1
    14     7    13    1
    15     8    10    1
    16     8    14    1
    17     4     5    1
    18    28    36    1
    19    30    33    1
    20    30    38    1
    21    31    34    1
    22    31    39    1
    23    32    35    1
    24    32    40    1
    25    41    43   ar
    26    15    19    2
    27    42    43   ar
    28    16    22    2
    29    17    12    1
    30    17    19   ar
    31    17    20   ar
    32    18    19   ar
    33    18    22   ar
    34    18    23    1
    35     9    10    1
    36     9    11    1
    37    10    12    1
    38    11     5    1
    39    33    34    1
    40    33    35    1
    41    34    36    1
    42    35    37    1
    43    37    43    1
    44    20    21   ar
    45    21    22   ar
@<TRIPOS>MOLECULE
*****
 43 45 0 0 0
SMALL
GASTEIGER

@<TRIPOS>ATOM
      1 P          22.4111   72.9272   -3.6936 P.3     1  UNL1        0.2189
      2 O          23.9271   72.5330   -4.1003 O.co2   1  UNL1       -0.4371
      3 O          22.1795   73.1204   -2.2236 O.2     1  UNL1       -0.5170
      4 O          21.5094   71.7863   -4.4030 O.3     1  UNL1       -0.3112
      5 C          20.7965   70.8801   -3.5814 C.3     1  UNL1        0.1811
      6 O          18.9431   71.9680   -4.6580 O.3     1  UNL1       -0.3308
      7 O          17.2490   70.8631   -2.4444 O.3     1  UNL1       -0.3794
      8 O          16.7344   69.1483   -4.5012 O.3     1  UNL1       -0.3779
      9 C          18.3721   70.2759   -3.1019 C.3     1  UNL1        0.1713
     10 C          17.9826   69.8088   -4.4883 C.3     1  UNL1        0.1895
     11 C          19.3698   71.3847   -3.4078 C.3     1  UNL1        0.1764
     12 C          17.9619   71.1134   -5.2665 C.3     1  UNL1        0.2383
     13 H          16.5976   70.1738   -2.2387 H       1  UNL1        0.2105
     14 H          16.7995   68.3240   -3.9931 H       1  UNL1        0.2106
     15 O          16.1093   70.3888   -7.2713 O.2     1  UNL1       -0.2464
     16 O          19.3536   70.4420  -10.5447 O.2     1  UNL1       -0.2670
     17 N          18.2954   70.9312   -6.6508 N.ar    1  UNL1       -0.2551
     18 N          17.7271   70.4150   -8.8995 N.ar    1  UNL1       -0.2743
     19 C          17.2898   70.5667   -7.5771 C.ar    1  UNL1        0.3323
     20 C          19.6047   71.1146   -7.0787 C.ar    1  UNL1        0.0869
     21 C          20.0063   70.9666   -8.3427 C.ar    1  UNL1        0.0795
     22 C          19.0179   70.5859   -9.3730 C.ar    1  UNL1        0.2626
     23 H          17.0453   70.1595   -9.5622 H       1  UNL1        0.1734
     24 O          22.1209   74.2347   -4.5985 O.3     1  UNL1       -0.2703
     25 P          22.3295   74.4987   -6.1798 P.3     1  UNL1        0.2208
     26 O          22.5457   73.0102   -6.7780 O.co2   1  UNL1       -0.4371
     27 O          23.4352   75.4616   -6.5028 O.2     1  UNL1       -0.5170
     28 O          20.8749   74.9455   -6.7155 O.3     1  UNL1       -0.2858
     29 O          19.6171   74.5483   -8.6826 O.3     1  UNL1       -0.3226
     30 O          18.8438   78.5459   -7.9833 O.3     1  UNL1       -0.3794
     31 O          21.5428   77.4791   -7.6488 O.3     1  UNL1       -0.3775
     32 O          16.8283   76.5415   -7.3744 O.3     1  UNL1       -0.3792
     33 C          19.1336   77.1934   -7.6301 C.3     1  UNL1        0.1718
     34 C          20.4649   76.7753   -8.2549 C.3     1  UNL1        0.1968
     35 C          17.9983   76.3132   -8.1576 C.3     1  UNL1        0.1723
     36 C          20.6974   75.2725   -8.0926 C.3     1  UNL1        0.2706
     37 C          18.3580   74.8325   -8.0770 C.3     1  UNL1        0.1830
     38 H          19.5520   79.1240   -7.6584 H       1  UNL1        0.2105
     39 H          21.4016   78.4334   -7.7478 H       1  UNL1        0.2106
     40 H          16.5887   77.4804   -7.4170 H       1  UNL1        0.2106
     41 O          17.9997   73.5617  -10.0156 O.co2   1  UNL1       -0.5466
     42 O          16.2489   73.7691   -8.5696 O.co2   1  UNL1       -0.5466
     43 C          17.4052   74.0105   -8.8825 C.2     1  UNL1        0.0799
@<TRIPOS>UNITY_ATOM_ATTR
2 1
charge -1
26 1
charge -1
41 1
charge -1
@<TRIPOS>BOND
     1     1     4    1
     2     1    24    1
     3     1     2    1
     4     1     3    2
     5    25    28    1
     6    25    24    1
     7    25    26    1
     8    25    27    2
     9     6    11    1
    10     6    12    1
    11    29    36    1
    12    29    37    1
    13     7     9    1
    14     7    13    1
    15     8    10    1
    16     8    14    1
    17     4     5    1
    18    28    36    1
    19    30    33    1
    20    30    38    1
    21    31    34    1
    22    31    39    1
    23    32    35    1
    24    32    40    1
    25    41    43   ar
    26    15    19    2
    27    42    43   ar
    28    16    22    2
    29    17    12    1
    30    17    19   ar
    31    17    20   ar
    32    18    19   ar
    33    18    22   ar
    34    18    23    1
    35     9    10    1
    36     9    11    1
    37    10    12    1
    38    11     5    1
    39    33    34    1
    40    33    35    1
    41    34    36    1
    42    35    37    1
    43    37    43    1
    44    20    21   ar
    45    21    22   ar
@<TRIPOS>MOLECULE
*****
 43 45 0 0 0
SMALL
GASTEIGER

@<TRIPOS>ATOM
      1 P          18.0103   74.4539   -2.6969 P.3     1  UNL1        0.2189
      2 O          16.9109   75.3910   -1.9675 O.co2   1  UNL1       -0.4371
      3 O          18.3239   74.8316   -4.1150 O.2     1  UNL1       -0.5170
      4 O          17.4480   72.9526   -2.4777 O.3     1  UNL1       -0.3112
      5 C          16.6322   72.3824   -3.4845 C.3     1  UNL1        0.1811
      6 O          16.7043   70.3933   -4.8320 O.3     1  UNL1       -0.3308
      7 O          18.0819   69.0927   -2.5077 O.3     1  UNL1       -0.3794
      8 O          20.1532   69.6530   -4.1906 O.3     1  UNL1       -0.3779
      9 C          18.1897   70.4332   -2.9873 C.3     1  UNL1        0.1713
     10 C          19.0031   70.4695   -4.2637 C.3     1  UNL1        0.1895
     11 C          16.8145   70.8701   -3.4734 C.3     1  UNL1        0.1764
     12 C          17.9995   69.9753   -5.2915 C.3     1  UNL1        0.2383
     13 H          18.9485   68.7914   -2.1916 H       1  UNL1        0.2105
     14 H          20.7608   70.0093   -3.5230 H       1  UNL1        0.2106
     15 O          16.0816   70.0391   -7.3638 O.2     1  UNL1       -0.2464
     16 O          19.0062   72.1217  -10.2541 O.2     1  UNL1       -0.2670
     17 N          18.2331   70.5284   -6.5955 N.ar    1  UNL1       -0.2551
     18 N          17.5404   71.0753   -8.8016 N.ar    1  UNL1       -0.2743
     19 C          17.2025   70.5104   -7.5648 C.ar    1  UNL1        0.3323
     20 C          19.4702   71.0816   -6.9027 C.ar    1  UNL1        0.0869
     21 C          19.7773   71.6165   -8.0861 C.ar    1  UNL1        0.0795
     22 C          18.7568   71.6369   -9.1545 C.ar    1  UNL1        0.2626
     23 H          16.8396   71.0725   -9.4932 H       1  UNL1        0.1734
     24 O          19.2711   74.5208   -1.6877 O.3     1  UNL1       -0.2703
     25 P          20.5106   73.5061   -1.4690 P.3     1  UNL1        0.2208
     26 O          20.9945   73.1823   -2.9794 O.co2   1  UNL1       -0.4371
     27 O          20.1754   72.2912   -0.6532 O.2     1  UNL1       -0.5170
     28 O          21.6862   74.4230   -0.8526 O.3     1  UNL1       -0.2858
     29 O          22.8953   72.7433    0.2990 O.3     1  UNL1       -0.3226
     30 O          23.6090   71.7389   -3.6443 O.3     1  UNL1       -0.3794
     31 O          23.6767   74.5324   -2.7922 O.3     1  UNL1       -0.3775
     32 O          21.7211   70.1935   -2.0636 O.3     1  UNL1       -0.3792
     33 C          22.8587   72.2614   -2.5479 C.3     1  UNL1        0.1718
     34 C          23.6261   73.4186   -1.9080 C.3     1  UNL1        0.1968
     35 C          22.6545   71.1332   -1.5343 C.3     1  UNL1        0.1723
     36 C          22.9685   73.8527   -0.5973 C.3     1  UNL1        0.2706
     37 C          22.1135   71.6651   -0.2102 C.3     1  UNL1        0.1830
     38 H          23.7512   72.4382   -4.3015 H       1  UNL1        0.2105
     39 H          24.0926   74.2640   -3.6261 H       1  UNL1        0.2106
     40 H          22.0534   69.8474   -2.9066 H       1  UNL1        0.2106
     41 O          22.7569   71.1688    1.9901 O.co2   1  UNL1       -0.5466
     42 O          21.8910   69.4627    0.7497 O.co2   1  UNL1       -0.5466
     43 C          22.2278   70.6318    0.8629 C.2     1  UNL1        0.0799
@<TRIPOS>UNITY_ATOM_ATTR
2 1
charge -1
26 1
charge -1
41 1
charge -1
@<TRIPOS>BOND
     1     1     4    1
     2     1    24    1
     3     1     2    1
     4     1     3    2
     5    25    28    1
     6    25    24    1
     7    25    26    1
     8    25    27    2
     9     6    11    1
    10     6    12    1
    11    29    36    1
    12    29    37    1
    13     7     9    1
    14     7    13    1
    15     8    10    1
    16     8    14    1
    17     4     5    1
    18    28    36    1
    19    30    33    1
    20    30    38    1
    21    31    34    1
    22    31    39    1
    23    32    35    1
    24    32    40    1
    25    41    43   ar
    26    15    19    2
    27    42    43   ar
    28    16    22    2
    29    17    12    1
    30    17    19   ar
    31    17    20   ar
    32    18    19   ar
    33    18    22   ar
    34    18    23    1
    35     9    10    1
    36     9    11    1
    37    10    12    1
    38    11     5    1
    39    33    34    1
    40    33    35    1
    41    34    36    1
    42    35    37    1
    43    37    43    1
    44    20    21   ar
    45    21    22   ar
@<TRIPOS>MOLECULE
*****
 43 45 0 0 0
SMALL
GASTEIGER

@<TRIPOS>ATOM
      1 P          22.3149   73.0788   -4.1498 P.3     1  UNL1        0.2189
      2 O          23.8179   72.4790   -4.1463 O.co2   1  UNL1       -0.4371
      3 O          21.8955   73.7447   -2.8721 O.2     1  UNL1       -0.5170
      4 O          21.4001   71.8319   -4.6254 O.3     1  UNL1       -0.3112
      5 C          20.7804   71.0316   -3.6355 C.3     1  UNL1        0.1811
      6 O          18.8792   72.0231   -4.7218 O.3     1  UNL1       -0.3308
      7 O          17.2448   70.9090   -2.4681 O.3     1  UNL1       -0.3794
      8 O          16.7795   69.1272   -4.4792 O.3     1  UNL1       -0.3779
      9 C          18.3843   70.3488   -3.1211 C.3     1  UNL1        0.1713
     10 C          18.0020   69.8342   -4.4927 C.3     1  UNL1        0.1895
     11 C          19.3371   71.4865   -3.4617 C.3     1  UNL1        0.1764
     12 C          17.9262   71.1180   -5.3013 C.3     1  UNL1        0.2383
     13 H          16.6215   70.2009   -2.2406 H       1  UNL1        0.2105
     14 H          16.8796   68.3184   -3.9522 H       1  UNL1        0.2106
     15 O          16.0625   70.3919   -7.2953 O.2     1  UNL1       -0.2464
     16 O          19.3032   70.3666  -10.5727 O.2     1  UNL1       -0.2670
     17 N          18.2559   70.9151   -6.6838 N.ar    1  UNL1       -0.2551
     18 N          17.6785   70.3790   -8.9255 N.ar    1  UNL1       -0.2743
     19 C          17.2448   70.5517   -7.6045 C.ar    1  UNL1        0.3323
     20 C          19.5667   71.0776   -7.1153 C.ar    1  UNL1        0.0869
     21 C          19.9649   70.9096   -8.3778 C.ar    1  UNL1        0.0795
     22 C          18.9707   70.5286   -9.4024 C.ar    1  UNL1        0.2626
     23 H          16.9929   70.1238   -9.5844 H       1  UNL1        0.1734
     24 O          22.3131   74.0458   -5.4451 O.3     1  UNL1       -0.2703
     25 P          22.9524   75.5127   -5.6754 P.3     1  UNL1        0.2208
     26 O          24.2937   75.4780   -4.7698 O.co2   1  UNL1       -0.4371
     27 O          22.0214   76.6470   -5.3583 O.2     1  UNL1       -0.5170
     28 O          23.4879   75.4915   -7.1971 O.3     1  UNL1       -0.2858
     29 O          22.7152   76.7668   -9.0371 O.3     1  UNL1       -0.3226
     30 O          24.0755   73.3400  -10.9012 O.3     1  UNL1       -0.3794
     31 O          22.5579   73.1682   -8.4109 O.3     1  UNL1       -0.3775
     32 O          25.6410   75.7865  -11.0224 O.3     1  UNL1       -0.3792
     33 C          24.0553   74.3596   -9.9023 C.3     1  UNL1        0.1718
     34 C          22.7030   74.3506   -9.1891 C.3     1  UNL1        0.1968
     35 C          24.2826   75.7051  -10.5952 C.3     1  UNL1        0.1723
     36 C          22.5579   75.5687   -8.2759 C.3     1  UNL1        0.2706
     37 C          23.9964   76.8717   -9.6542 C.3     1  UNL1        0.1830
     38 H          23.9330   72.4757  -10.4842 H       1  UNL1        0.2105
     39 H          22.6491   72.3912   -8.9840 H       1  UNL1        0.2106
     40 H          25.8362   75.0494  -11.6219 H       1  UNL1        0.2106
     41 O          25.1227   78.7205  -10.5569 O.co2   1  UNL1       -0.5466
     42 O          22.8634   78.6333  -10.8519 O.co2   1  UNL1       -0.5466
     43 C          23.8987   78.1545  -10.4140 C.2     1  UNL1        0.0799
@<TRIPOS>UNITY_ATOM_ATTR
2 1
charge -1
26 1
charge -1
41 1
charge -1
@<TRIPOS>BOND
     1     1     4    1
     2     1    24    1
     3     1     2    1
     4     1     3    2
     5    25    28    1
     6    25    24    1
     7    25    26    1
     8    25    27    2
     9     6    11    1
    10     6    12    1
    11    29    36    1
    12    29    37    1
    13     7     9    1
    14     7    13    1
    15     8    10    1
    16     8    14    1
    17     4     5    1
    18    28    36    1
    19    30    33    1
    20    30    38    1
    21    31    34    1
    22    31    39    1
    23    32    35    1
    24    32    40    1
    25    41    43   ar
    26    15    19    2
    27    42    43   ar
    28    16    22    2
    29    17    12    1
    30    17    19   ar
    31    17    20   ar
    32    18    19   ar
    33    18    22   ar
    34    18    23    1
    35     9    10    1
    36     9    11    1
    37    10    12    1
    38    11     5    1
    39    33    34    1
    40    33    35    1
    41    34    36    1
    42    35    37    1
    43    37    43    1
    44    20    21   ar
    45    21    22   ar
@<TRIPOS>MOLECULE
*****
 43 45 0 0 0
SMALL
GASTEIGER

@<TRIPOS>ATOM
      1 P          21.0135   70.7952   -2.7082 P.3     1  UNL1        0.2189
      2 O          21.1713   72.3900   -2.9326 O.co2   1  UNL1       -0.4371
      3 O          22.0371   69.9521   -3.4106 O.2     1  UNL1       -0.5170
      4 O          19.4715   70.4986   -3.0984 O.3     1  UNL1       -0.3112
      5 C          19.1692   70.1386   -4.4339 C.3     1  UNL1        0.1811
      6 O          18.6131   72.2953   -5.3378 O.3     1  UNL1       -0.3308
      7 O          16.0471   71.0430   -6.2539 O.3     1  UNL1       -0.3794
      8 O          17.5414   71.0764   -8.5347 O.3     1  UNL1       -0.3779
      9 C          17.3556   70.4758   -6.1859 C.3     1  UNL1        0.1713
     10 C          18.2231   71.0242   -7.2989 C.3     1  UNL1        0.1895
     11 C          18.0430   71.0281   -4.9446 C.3     1  UNL1        0.1764
     12 C          18.5809   72.4026   -6.7699 C.3     1  UNL1        0.2383
     13 H          15.5882   70.7049   -7.0392 H       1  UNL1        0.2105
     14 H          17.3362   70.1746   -8.8290 H       1  UNL1        0.2106
     15 O          20.4836   70.7505   -8.0454 O.2     1  UNL1       -0.2464
     16 O          23.4682   74.2324   -8.5060 O.2     1  UNL1       -0.2670
     17 N          19.8633   72.8515   -7.2334 N.ar    1  UNL1       -0.2551
     18 N          21.9687   72.4860   -8.2726 N.ar    1  UNL1       -0.2743
     19 C          20.7454   71.9406   -7.8613 C.ar    1  UNL1        0.3323
     20 C          20.2352   74.1799   -7.0661 C.ar    1  UNL1        0.0869
     21 C          21.4046   74.6852   -7.4636 C.ar    1  UNL1        0.0795
     22 C          22.3838   73.7999   -8.1276 C.ar    1  UNL1        0.2626
     23 H          22.6002   71.8706   -8.7105 H       1  UNL1        0.1734
     24 O          21.0146   70.6535   -1.0980 O.3     1  UNL1       -0.2703
     25 P          22.2329   70.4930   -0.0474 P.3     1  UNL1        0.2208
     26 O          23.5400   70.4464   -1.0011 O.co2   1  UNL1       -0.4371
     27 O          22.0989   69.3168    0.8760 O.2     1  UNL1       -0.5170
     28 O          22.3225   71.9215    0.6967 O.3     1  UNL1       -0.2858
     29 O          21.7281   72.4597    2.9252 O.3     1  UNL1       -0.3226
     30 O          21.0205   76.0349    0.9796 O.3     1  UNL1       -0.3794
     31 O          20.2366   73.5015   -0.2460 O.3     1  UNL1       -0.3775
     32 O          23.3840   75.7217    2.6429 O.3     1  UNL1       -0.3792
     33 C          21.6766   74.7902    1.2209 C.3     1  UNL1        0.1718
     34 C          20.6671   73.6481    1.1023 C.3     1  UNL1        0.1968
     35 C          22.2683   74.8332    2.6316 C.3     1  UNL1        0.1723
     36 C          21.2762   72.3281    1.5769 C.3     1  UNL1        0.2706
     37 C          22.7394   73.4529    3.0804 C.3     1  UNL1        0.1830
     38 H          20.6365   76.0308    0.0886 H       1  UNL1        0.2105
     39 H          19.8493   74.3356   -0.5538 H       1  UNL1        0.2106
     40 H          23.0978   76.6039    2.3590 H       1  UNL1        0.2106
     41 O          22.1079   72.6426    5.1890 O.co2   1  UNL1       -0.5466
     42 O          23.9038   74.0452    5.1089 O.co2   1  UNL1       -0.5466
     43 C          23.0043   73.4350    4.5507 C.2     1  UNL1        0.0799
@<TRIPOS>UNITY_ATOM_ATTR
2 1
charge -1
26 1
charge -1
41 1
charge -1
@<TRIPOS>BOND
     1     1     4    1
     2     1    24    1
     3     1     2    1
     4     1     3    2
     5    25    28    1
     6    25    24    1
     7    25    26    1
     8    25    27    2
     9     6    11    1
    10     6    12    1
    11    29    36    1
    12    29    37    1
    13     7     9    1
    14     7    13    1
    15     8    10    1
    16     8    14    1
    17     4     5    1
    18    28    36    1
    19    30    33    1
    20    30    38    1
    21    31    34    1
    22    31    39    1
    23    32    35    1
    24    32    40    1
    25    41    43   ar
    26    15    19    2
    27    42    43   ar
    28    16    22    2
    29    17    12    1
    30    17    19   ar
    31    17    20   ar
    32    18    19   ar
    33    18    22   ar
    34    18    23    1
    35     9    10    1
    36     9    11    1
    37    10    12    1
    38    11     5    1
    39    33    34    1
    40    33    35    1
    41    34    36    1
    42    35    37    1
    43    37    43    1
    44    20    21   ar
    45    21    22   ar
@<TRIPOS>MOLECULE
*****
 43 45 0 0 0
SMALL
GASTEIGER

@<TRIPOS>ATOM
      1 P          22.0237   70.2791   -0.3624 P.3     1  UNL1        0.2189
      2 O          22.7801   70.8820   -1.6598 O.co2   1  UNL1       -0.4371
      3 O          22.7790   69.2101    0.3715 O.2     1  UNL1       -0.5170
      4 O          20.5685   69.8506   -0.9253 O.3     1  UNL1       -0.3112
      5 C          20.2159   70.2270   -2.2438 C.3     1  UNL1        0.1811
      6 O          17.8352   70.5268   -2.3848 O.3     1  UNL1       -0.3308
      7 O          17.8293   68.1405   -4.2005 O.3     1  UNL1       -0.3794
      8 O          17.6481   70.2226   -5.9522 O.3     1  UNL1       -0.3779
      9 C          18.7986   69.1819   -4.0800 C.3     1  UNL1        0.1713
     10 C          18.2797   70.4566   -4.7109 C.3     1  UNL1        0.1895
     11 C          18.8920   69.5689   -2.6103 C.3     1  UNL1        0.1764
     12 C          17.3167   70.9637   -3.6511 C.3     1  UNL1        0.2383
     13 H          17.7521   67.8764   -5.1311 H       1  UNL1        0.2105
     14 H          18.3028   69.9015   -6.5927 H       1  UNL1        0.2106
     15 O          14.8926   72.3893   -3.9128 O.2     1  UNL1       -0.2464
     16 O          17.0401   76.4564   -3.6122 O.2     1  UNL1       -0.2670
     17 N          17.2135   72.3956   -3.6445 N.ar    1  UNL1       -0.2551
     18 N          15.9646   74.4136   -3.7638 N.ar    1  UNL1       -0.2743
     19 C          15.9478   73.0127   -3.7830 C.ar    1  UNL1        0.3323
     20 C          18.3565   73.1726   -3.5005 C.ar    1  UNL1        0.0869
     21 C          18.3567   74.5070   -3.4840 C.ar    1  UNL1        0.0795
     22 C          17.0755   75.2297   -3.6238 C.ar    1  UNL1        0.2626
     23 H          15.0955   74.8658   -3.8606 H       1  UNL1        0.1734
     24 O          21.7002   71.5978    0.5145 O.3     1  UNL1       -0.2703
     25 P          22.1698   73.1342    0.3337 P.3     1  UNL1        0.2208
     26 O          20.8578   73.8514   -0.2864 O.co2   1  UNL1       -0.4371
     27 O          23.4145   73.3050   -0.4881 O.2     1  UNL1       -0.5170
     28 O          22.2760   73.7094    1.8372 O.3     1  UNL1       -0.2858
     29 O          23.9497   73.5272    3.5029 O.3     1  UNL1       -0.3226
     30 O          20.4957   73.4249    5.7672 O.3     1  UNL1       -0.3794
     31 O          20.6649   71.9412    3.2563 O.3     1  UNL1       -0.3775
     32 O          22.1153   75.8375    5.6844 O.3     1  UNL1       -0.3792
     33 C          21.3211   73.8037    4.6657 C.3     1  UNL1        0.1718
     34 C          21.7709   72.5534    3.9095 C.3     1  UNL1        0.1968
     35 C          22.5334   74.5554    5.2199 C.3     1  UNL1        0.1723
     36 C          22.8362   72.8977    2.8677 C.3     1  UNL1        0.2706
     37 C          23.6049   74.7496    4.1508 C.3     1  UNL1        0.1830
     38 H          19.7186   72.9454    5.4392 H       1  UNL1        0.2105
     39 H          19.9848   71.7203    3.9114 H       1  UNL1        0.2106
     40 H          21.4331   75.7281    6.3653 H       1  UNL1        0.2106
     41 O          24.8963   76.5153    4.9970 O.co2   1  UNL1       -0.5466
     42 O          25.8292   74.4350    5.0312 O.co2   1  UNL1       -0.5466
     43 C          24.8968   75.1790    4.7664 C.2     1  UNL1        0.0799
@<TRIPOS>UNITY_ATOM_ATTR
2 1
charge -1
26 1
charge -1
41 1
charge -1
@<TRIPOS>BOND
     1     1     4    1
     2     1    24    1
     3     1     2    1
     4     1     3    2
     5    25    28    1
     6    25    24    1
     7    25    26    1
     8    25    27    2
     9     6    11    1
    10     6    12    1
    11    29    36    1
    12    29    37    1
    13     7     9    1
    14     7    13    1
    15     8    10    1
    16     8    14    1
    17     4     5    1
    18    28    36    1
    19    30    33    1
    20    30    38    1
    21    31    34    1
    22    31    39    1
    23    32    35    1
    24    32    40    1
    25    41    43   ar
    26    15    19    2
    27    42    43   ar
    28    16    22    2
    29    17    12    1
    30    17    19   ar
    31    17    20   ar
    32    18    19   ar
    33    18    22   ar
    34    18    23    1
    35     9    10    1
    36     9    11    1
    37    10    12    1
    38    11     5    1
    39    33    34    1
    40    33    35    1
    41    34    36    1
    42    35    37    1
    43    37    43    1
    44    20    21   ar
    45    21    22   ar
@<TRIPOS>MOLECULE
*****
 43 45 0 0 0
SMALL
GASTEIGER

@<TRIPOS>ATOM
      1 P          21.9359   70.2391   -0.4987 P.3     1  UNL1        0.2189
      2 O          22.6724   70.8221   -1.8166 O.co2   1  UNL1       -0.4371
      3 O          22.7013   69.1795    0.2383 O.2     1  UNL1       -0.5170
      4 O          20.4713   69.8052   -1.0321 O.3     1  UNL1       -0.3112
      5 C          20.2725   69.6701   -2.4274 C.3     1  UNL1        0.1811
      6 O          19.0494   71.6269   -3.1002 O.3     1  UNL1       -0.3308
      7 O          16.8830   69.7456   -3.9713 O.3     1  UNL1       -0.3794
      8 O          18.1115   70.3701   -6.3243 O.3     1  UNL1       -0.3779
      9 C          18.3001   69.5821   -4.0318 C.3     1  UNL1        0.1713
     10 C          18.8792   70.4349   -5.1407 C.3     1  UNL1        0.1895
     11 C          18.9006   70.2247   -2.7890 C.3     1  UNL1        0.1764
     12 C          18.8697   71.8180   -4.5125 C.3     1  UNL1        0.2383
     13 H          16.4769   69.3428   -4.7552 H       1  UNL1        0.2105
     14 H          18.1496   69.4701   -6.6856 H       1  UNL1        0.2106
     15 O          18.4708   74.1414   -6.0679 O.2     1  UNL1       -0.2464
     16 O          23.0001   74.9429   -6.3625 O.2     1  UNL1       -0.2670
     17 N          19.9270   72.6526   -5.0089 N.ar    1  UNL1       -0.2551
     18 N          20.7271   74.5378   -6.2140 N.ar    1  UNL1       -0.2743
     19 C          19.6191   73.7975   -5.7813 C.ar    1  UNL1        0.3323
     20 C          21.2506   72.3356   -4.7286 C.ar    1  UNL1        0.0869
     21 C          22.2961   73.0511   -5.1478 C.ar    1  UNL1        0.0795
     22 C          22.0611   74.2621   -5.9612 C.ar    1  UNL1        0.2626
     23 H          20.5378   75.3382   -6.7552 H       1  UNL1        0.1734
     24 O          21.6285   71.5709    0.3642 O.3     1  UNL1       -0.2703
     25 P          22.1182   73.0991    0.1684 P.3     1  UNL1        0.2208
     26 O          20.8473   73.8065   -0.5422 O.co2   1  UNL1       -0.4371
     27 O          23.4074   73.2406   -0.5879 O.2     1  UNL1       -0.5170
     28 O          22.1457   73.7144    1.6594 O.3     1  UNL1       -0.2858
     29 O          23.8680   73.7845    3.2835 O.3     1  UNL1       -0.3226
     30 O          20.5011   73.3910    5.6451 O.3     1  UNL1       -0.3794
     31 O          20.7755   71.8367    3.1868 O.3     1  UNL1       -0.3775
     32 O          21.8392   75.9627    5.4287 O.3     1  UNL1       -0.3792
     33 C          21.2530   73.8147    4.5080 C.3     1  UNL1        0.1718
     34 C          21.8214   72.5928    3.7860 C.3     1  UNL1        0.1968
     35 C          22.3866   74.7172    5.0002 C.3     1  UNL1        0.1723
     36 C          22.8170   73.0111    2.7032 C.3     1  UNL1        0.2706
     37 C          23.4043   74.9860    3.8954 C.3     1  UNL1        0.1830
     38 H          19.7748   72.8160    5.3567 H       1  UNL1        0.2105
     39 H          20.1399   71.5681    3.8682 H       1  UNL1        0.2106
     40 H          21.1897   75.8056    6.1317 H       1  UNL1        0.2106
     41 O          25.3061   74.6772    5.2331 O.co2   1  UNL1       -0.5466
     42 O          25.0443   76.7192    4.2530 O.co2   1  UNL1       -0.5466
     43 C          24.6544   75.5797    4.4587 C.2     1  UNL1        0.0799
@<TRIPOS>UNITY_ATOM_ATTR
2 1
charge -1
26 1
charge -1
41 1
charge -1
@<TRIPOS>BOND
     1     1     4    1
     2     1    24    1
     3     1     2    1
     4     1     3    2
     5    25    28    1
     6    25    24    1
     7    25    26    1
     8    25    27    2
     9     6    11    1
    10     6    12    1
    11    29    36    1
    12    29    37    1
    13     7     9    1
    14     7    13    1
    15     8    10    1
    16     8    14    1
    17     4     5    1
    18    28    36    1
    19    30    33    1
    20    30    38    1
    21    31    34    1
    22    31    39    1
    23    32    35    1
    24    32    40    1
    25    41    43   ar
    26    15    19    2
    27    42    43   ar
    28    16    22    2
    29    17    12    1
    30    17    19   ar
    31    17    20   ar
    32    18    19   ar
    33    18    22   ar
    34    18    23    1
    35     9    10    1
    36     9    11    1
    37    10    12    1
    38    11     5    1
    39    33    34    1
    40    33    35    1
    41    34    36    1
    42    35    37    1
    43    37    43    1
    44    20    21   ar
    45    21    22   ar
@<TRIPOS>MOLECULE
*****
 43 45 0 0 0
SMALL
GASTEIGER

@<TRIPOS>ATOM
      1 P          22.0487   72.3786   -4.3954 P.3     1  UNL1        0.2189
      2 O          23.5695   72.0402   -3.9579 O.co2   1  UNL1       -0.4371
      3 O          21.0420   71.3175   -4.0600 O.2     1  UNL1       -0.5170
      4 O          22.1711   72.7606   -5.9628 O.3     1  UNL1       -0.3112
      5 C          20.9840   73.0134   -6.6918 C.3     1  UNL1        0.1811
      6 O          18.9370   71.7608   -6.8268 O.3     1  UNL1       -0.3308
      7 O          20.3801   69.9648   -8.7459 O.3     1  UNL1       -0.3794
      8 O          18.8916   71.5361  -10.4047 O.3     1  UNL1       -0.3779
      9 C          20.4870   71.3785   -8.5766 C.3     1  UNL1        0.1713
     10 C          19.2689   72.0690   -9.1524 C.3     1  UNL1        0.1895
     11 C          20.3546   71.6850   -7.0911 C.3     1  UNL1        0.1764
     12 C          18.2274   71.8222   -8.0742 C.3     1  UNL1        0.2383
     13 H          20.4617   69.7445   -9.6875 H       1  UNL1        0.2105
     14 H          19.5868   71.7194  -11.0567 H       1  UNL1        0.2106
     15 O          15.8427   71.6856   -6.5673 O.2     1  UNL1       -0.2464
     16 O          14.5545   75.9112   -7.8820 O.2     1  UNL1       -0.2670
     17 N          17.2511   72.8724   -8.0049 N.ar    1  UNL1       -0.2551
     18 N          15.2029   73.7899   -7.2244 N.ar    1  UNL1       -0.2743
     19 C          16.0869   72.7030   -7.2186 C.ar    1  UNL1        0.3323
     20 C          17.4518   74.0536   -8.7085 C.ar    1  UNL1        0.0869
     21 C          16.6002   75.0810   -8.7041 C.ar    1  UNL1        0.0795
     22 C          15.3588   74.9846   -7.9085 C.ar    1  UNL1        0.2626
     23 H          14.3842   73.6946   -6.6858 H       1  UNL1        0.1734
     24 O          21.7787   73.8090   -3.6927 O.3     1  UNL1       -0.2703
     25 P          20.8985   74.2053   -2.3959 P.3     1  UNL1        0.2208
     26 O          19.3810   73.9053   -2.8731 O.co2   1  UNL1       -0.4371
     27 O          21.1260   75.6044   -1.9013 O.2     1  UNL1       -0.5170
     28 O          21.2207   73.0523   -1.3146 O.3     1  UNL1       -0.2858
     29 O          22.7602   73.7594    0.3404 O.3     1  UNL1       -0.3226
     30 O          22.3771   69.7391    1.2114 O.3     1  UNL1       -0.3794
     31 O          22.5847   70.6407   -1.5596 O.3     1  UNL1       -0.3775
     32 O          21.0603   71.7249    2.8769 O.3     1  UNL1       -0.3792
     33 C          21.9458   71.0194    0.7501 C.3     1  UNL1        0.1718
     34 C          22.8214   71.4625   -0.4223 C.3     1  UNL1        0.1968
     35 C          22.0717   72.0077    1.9117 C.3     1  UNL1        0.1723
     36 C          22.5420   72.9195   -0.7938 C.3     1  UNL1        0.2706
     37 C          21.9046   73.4485    1.4379 C.3     1  UNL1        0.1830
     38 H          22.3059   69.0944    0.4899 H       1  UNL1        0.2105
     39 H          22.7598   69.7148   -1.3309 H       1  UNL1        0.2106
     40 H          21.1554   70.8106    3.1865 H       1  UNL1        0.2106
     41 O          21.4858   74.4055    3.5380 O.co2   1  UNL1       -0.5466
     42 O          23.3531   75.1031    2.4308 O.co2   1  UNL1       -0.5466
     43 C          22.3495   74.4088    2.4926 C.2     1  UNL1        0.0799
@<TRIPOS>UNITY_ATOM_ATTR
2 1
charge -1
26 1
charge -1
41 1
charge -1
@<TRIPOS>BOND
     1     1     4    1
     2     1    24    1
     3     1     2    1
     4     1     3    2
     5    25    28    1
     6    25    24    1
     7    25    26    1
     8    25    27    2
     9     6    11    1
    10     6    12    1
    11    29    36    1
    12    29    37    1
    13     7     9    1
    14     7    13    1
    15     8    10    1
    16     8    14    1
    17     4     5    1
    18    28    36    1
    19    30    33    1
    20    30    38    1
    21    31    34    1
    22    31    39    1
    23    32    35    1
    24    32    40    1
    25    41    43   ar
    26    15    19    2
    27    42    43   ar
    28    16    22    2
    29    17    12    1
    30    17    19   ar
    31    17    20   ar
    32    18    19   ar
    33    18    22   ar
    34    18    23    1
    35     9    10    1
    36     9    11    1
    37    10    12    1
    38    11     5    1
    39    33    34    1
    40    33    35    1
    41    34    36    1
    42    35    37    1
    43    37    43    1
    44    20    21   ar
    45    21    22   ar
@<TRIPOS>MOLECULE
*****
 43 45 0 0 0
SMALL
GASTEIGER

@<TRIPOS>ATOM
      1 P          18.2737   70.7723   -2.9088 P.3     1  UNL1        0.2189
      2 O          18.4780   69.3282   -2.2076 O.co2   1  UNL1       -0.4371
      3 O          17.5256   71.7774   -2.0831 O.2     1  UNL1       -0.5170
      4 O          17.6202   70.4175   -4.3458 O.3     1  UNL1       -0.3112
      5 C          18.3791   70.6689   -5.5143 C.3     1  UNL1        0.1811
      6 O          18.1002   72.6113   -6.9024 O.3     1  UNL1       -0.3308
      7 O          16.1521   70.9711   -8.4854 O.3     1  UNL1       -0.3794
      8 O          18.4036   70.8680  -10.0205 O.3     1  UNL1       -0.3779
      9 C          17.3621   70.5670   -7.8441 C.3     1  UNL1        0.1713
     10 C          18.5603   71.0562   -8.6297 C.3     1  UNL1        0.1895
     11 C          17.4903   71.3519   -6.5457 C.3     1  UNL1        0.1764
     12 C          18.6147   72.5238   -8.2406 C.3     1  UNL1        0.2383
     13 H          16.0483   70.4829   -9.3177 H       1  UNL1        0.2105
     14 H          18.3748   69.9180  -10.2170 H       1  UNL1        0.2106
     15 O          20.9485   70.9471   -8.0304 O.2     1  UNL1       -0.2464
     16 O          23.6905   74.6394   -8.3351 O.2     1  UNL1       -0.2670
     17 N          19.9513   73.0472   -8.2622 N.ar    1  UNL1       -0.2551
     18 N          22.3119   72.7877   -8.1814 N.ar    1  UNL1       -0.2743
     19 C          21.0551   72.1691   -8.1494 C.ar    1  UNL1        0.3323
     20 C          20.1585   74.4148   -8.3954 C.ar    1  UNL1        0.0869
     21 C          21.3625   74.9896   -8.4244 C.ar    1  UNL1        0.0795
     22 C          22.5683   74.1430   -8.3115 C.ar    1  UNL1        0.2626
     23 H          23.0956   72.1970   -8.1025 H       1  UNL1        0.1734
     24 O          19.7828   71.2059   -3.2930 O.3     1  UNL1       -0.2703
     25 P          21.2048   70.7828   -2.6508 P.3     1  UNL1        0.2208
     26 O          22.2798   71.4539   -3.6579 O.co2   1  UNL1       -0.4371
     27 O          21.3777   69.3040   -2.4577 O.2     1  UNL1       -0.5170
     28 O          21.3173   71.6525   -1.2967 O.3     1  UNL1       -0.2858
     29 O          23.1434   72.8982   -0.4466 O.3     1  UNL1       -0.3226
     30 O          21.2907   71.6453    3.0270 O.3     1  UNL1       -0.3794
     31 O          21.6021   69.8148    0.7716 O.3     1  UNL1       -0.3775
     32 O          21.0013   74.3950    2.1289 O.3     1  UNL1       -0.3792
     33 C          21.3584   72.0584    1.6621 C.3     1  UNL1        0.1718
     34 C          22.2361   71.0845    0.8756 C.3     1  UNL1        0.1968
     35 C          21.9581   73.4658    1.6232 C.3     1  UNL1        0.1723
     36 C          22.5196   71.6162   -0.5300 C.3     1  UNL1        0.2706
     37 C          22.3296   73.8739    0.2005 C.3     1  UNL1        0.1830
     38 H          20.9126   70.7532    3.0766 H       1  UNL1        0.2105
     39 H          21.4190   69.4716    1.6599 H       1  UNL1        0.2106
     40 H          20.7562   74.1465    3.0339 H       1  UNL1        0.2106
     41 O          23.3145   75.6024   -1.0420 O.co2   1  UNL1       -0.5466
     42 O          23.7407   75.5580    1.1975 O.co2   1  UNL1       -0.5466
     43 C          23.2017   75.0870    0.2073 C.2     1  UNL1        0.0799
@<TRIPOS>UNITY_ATOM_ATTR
2 1
charge -1
26 1
charge -1
41 1
charge -1
@<TRIPOS>BOND
     1     1     4    1
     2     1    24    1
     3     1     2    1
     4     1     3    2
     5    25    28    1
     6    25    24    1
     7    25    26    1
     8    25    27    2
     9     6    11    1
    10     6    12    1
    11    29    36    1
    12    29    37    1
    13     7     9    1
    14     7    13    1
    15     8    10    1
    16     8    14    1
    17     4     5    1
    18    28    36    1
    19    30    33    1
    20    30    38    1
    21    31    34    1
    22    31    39    1
    23    32    35    1
    24    32    40    1
    25    41    43   ar
    26    15    19    2
    27    42    43   ar
    28    16    22    2
    29    17    12    1
    30    17    19   ar
    31    17    20   ar
    32    18    19   ar
    33    18    22   ar
    34    18    23    1
    35     9    10    1
    36     9    11    1
    37    10    12    1
    38    11     5    1
    39    33    34    1
    40    33    35    1
    41    34    36    1
    42    35    37    1
    43    37    43    1
    44    20    21   ar
    45    21    22   ar
@<TRIPOS>MOLECULE
*****
 43 45 0 0 0
SMALL
GASTEIGER

@<TRIPOS>ATOM
      1 P          17.7638   70.1238   -4.2991 P.3     1  UNL1        0.2189
      2 O          18.3646   69.7137   -2.8535 O.co2   1  UNL1       -0.4371
      3 O          16.6389   69.2583   -4.7864 O.2     1  UNL1       -0.5170
      4 O          19.0662   70.1886   -5.2570 O.3     1  UNL1       -0.3112
      5 C          19.1240   71.1938   -6.2524 C.3     1  UNL1        0.1811
      6 O          17.0239   71.6917   -7.3103 O.3     1  UNL1       -0.3308
      7 O          18.0814   70.2036   -9.6890 O.3     1  UNL1       -0.3794
      8 O          18.4412   72.8093  -10.4081 O.3     1  UNL1       -0.3779
      9 C          18.7754   71.0455   -8.7681 C.3     1  UNL1        0.1713
     10 C          18.4395   72.4983   -9.0305 C.3     1  UNL1        0.1895
     11 C          18.1760   70.8244   -7.3860 C.3     1  UNL1        0.1764
     12 C          17.0605   72.6210   -8.4050 C.3     1  UNL1        0.2383
     13 H          18.4469   70.3273  -10.5794 H       1  UNL1        0.2105
     14 H          19.3412   72.7165  -10.7594 H       1  UNL1        0.2106
     15 O          14.5395   73.8915   -8.4897 O.2     1  UNL1       -0.2464
     16 O          16.1813   77.6891   -6.4584 O.2     1  UNL1       -0.2670
     17 N          16.8010   73.9416   -7.9053 N.ar    1  UNL1       -0.2551
     18 N          15.3599   75.7821   -7.4789 N.ar    1  UNL1       -0.2743
     19 C          15.4988   74.4875   -7.9964 C.ar    1  UNL1        0.3323
     20 C          17.8287   74.6804   -7.3317 C.ar    1  UNL1        0.0869
     21 C          17.6808   75.9132   -6.8426 C.ar    1  UNL1        0.0795
     22 C          16.3519   76.5566   -6.8996 C.ar    1  UNL1        0.2626
     23 H          14.4627   76.1840   -7.5329 H       1  UNL1        0.1734
     24 O          17.3788   71.6815   -4.1034 O.3     1  UNL1       -0.2703
     25 P          18.0900   72.8506   -3.2427 P.3     1  UNL1        0.2208
     26 O          17.6204   72.5317   -1.7267 O.co2   1  UNL1       -0.4371
     27 O          17.7696   74.2410   -3.7098 O.2     1  UNL1       -0.5170
     28 O          19.6601   72.4807   -3.2689 O.3     1  UNL1       -0.2858
     29 O          20.9745   72.1950   -1.3196 O.3     1  UNL1       -0.3226
     30 O          23.8491   73.0921   -4.1481 O.3     1  UNL1       -0.3794
     31 O          21.3210   74.5549   -4.0905 O.3     1  UNL1       -0.3775
     32 O          23.5120   70.3554   -3.2273 O.3     1  UNL1       -0.3792
     33 C          22.6196   72.5499   -3.6662 C.3     1  UNL1        0.1718
     34 C          21.7657   73.6691   -3.0696 C.3     1  UNL1        0.1968
     35 C          22.9499   71.5052   -2.5978 C.3     1  UNL1        0.1723
     36 C          20.5486   73.0989   -2.3399 C.3     1  UNL1        0.2706
     37 C          21.7016   71.0797   -1.8301 C.3     1  UNL1        0.1830
     38 H          23.6643   73.7587   -4.8283 H       1  UNL1        0.2105
     39 H          22.0882   74.9202   -4.5578 H       1  UNL1        0.2106
     40 H          24.3072   70.6126   -3.7196 H       1  UNL1        0.2106
     41 O          23.4157   70.3150   -0.4234 O.co2   1  UNL1       -0.5466
     42 O          21.2759   69.7913    0.1650 O.co2   1  UNL1       -0.5466
     43 C          22.0704   70.3256   -0.5941 C.2     1  UNL1        0.0799
@<TRIPOS>UNITY_ATOM_ATTR
2 1
charge -1
26 1
charge -1
41 1
charge -1
@<TRIPOS>BOND
     1     1     4    1
     2     1    24    1
     3     1     2    1
     4     1     3    2
     5    25    28    1
     6    25    24    1
     7    25    26    1
     8    25    27    2
     9     6    11    1
    10     6    12    1
    11    29    36    1
    12    29    37    1
    13     7     9    1
    14     7    13    1
    15     8    10    1
    16     8    14    1
    17     4     5    1
    18    28    36    1
    19    30    33    1
    20    30    38    1
    21    31    34    1
    22    31    39    1
    23    32    35    1
    24    32    40    1
    25    41    43   ar
    26    15    19    2
    27    42    43   ar
    28    16    22    2
    29    17    12    1
    30    17    19   ar
    31    17    20   ar
    32    18    19   ar
    33    18    22   ar
    34    18    23    1
    35     9    10    1
    36     9    11    1
    37    10    12    1
    38    11     5    1
    39    33    34    1
    40    33    35    1
    41    34    36    1
    42    35    37    1
    43    37    43    1
    44    20    21   ar
    45    21    22   ar
