@<TRIPOS>MOLECULE
GDU
 43 45 0 0 0
SMALL
GASTEIGER

@<TRIPOS>ATOM
      1 P          20.9830   70.7873   -3.4895 P.3     1  UNL1        0.2189
      2 O          20.4969   69.4989   -4.0313 O.2     1  UNL1       -0.5170
      3 O          21.9567   71.4879   -4.5638 O.3     1  UNL1       -0.4371
      4 O          19.7305   71.7514   -3.1917 O.3     1  UNL1       -0.3112
      5 C          18.7232   70.9441   -2.5800 C.3     1  UNL1        0.1811
      6 C          17.0511   70.5497   -5.7385 C.3     1  UNL1        0.2383
      7 C          17.0639   69.1264   -5.1246 C.3     1  UNL1        0.1895
      8 O          15.9198   68.3795   -5.5446 O.3     1  UNL1       -0.3779
      9 C          17.0004   69.4275   -3.6046 C.3     1  UNL1        0.1713
     10 C          17.4952   70.8814   -3.4901 C.3     1  UNL1        0.1764
     11 O          17.8449   71.3227   -4.8134 O.3     1  UNL1       -0.3308
     12 O          15.6586   69.3096   -3.1275 O.3     1  UNL1       -0.3794
     13 H          15.9881   67.5081   -5.1302 H       1  UNL1        0.2106
     14 H          15.3864   68.3946   -3.2803 H       1  UNL1        0.2105
     15 N          17.6651   70.5462   -7.0673 N.ar    1  UNL1       -0.2551
     16 C          16.8879   70.4547   -8.1608 C.ar    1  UNL1        0.3323
     17 N          17.4270   70.4530   -9.3942 N.ar    1  UNL1       -0.2743
     18 C          18.7622   70.5334   -9.5528 C.ar    1  UNL1        0.2626
     19 C          19.5937   70.6245   -8.4098 C.ar    1  UNL1        0.0795
     20 C          19.0266   70.6284   -7.1847 C.ar    1  UNL1        0.0869
     21 O          15.6818   70.3820   -8.0336 O.2     1  UNL1       -0.2464
     22 O          19.2514   70.5270  -10.6687 O.2     1  UNL1       -0.2670
     23 H          16.8507   70.3906  -10.1725 H       1  UNL1        0.1734
     24 O          21.7945   70.5223   -2.1244 O.3     1  UNL1       -0.2703
     25 P          22.9674   71.6222   -2.0578 P.3     1  UNL1        0.2208
     26 O          24.2147   71.0469   -2.6078 O.2     1  UNL1       -0.5170
     27 O          22.5437   72.9115   -2.9252 O.3     1  UNL1       -0.4371
     28 O          23.2067   72.0613   -0.5281 O.3     1  UNL1       -0.2858
     29 C          23.1926   70.8661    0.2537 C.3     1  UNL1        0.2704
     30 C          21.9716   70.8747    1.1749 C.3     1  UNL1        0.1967
     31 C          22.0367   72.1107    2.0774 C.3     1  UNL1        0.1715
     32 C          23.3928   72.1250    2.7918 C.3     1  UNL1        0.1694
     33 C          24.5068   72.0235    1.7469 C.3     1  UNL1        0.1761
     34 O          20.7793   70.9165    0.3888 O.3     1  UNL1       -0.3775
     35 O          20.9836   72.0567    3.0422 O.3     1  UNL1       -0.3794
     36 O          23.4713   71.0174    3.6901 O.3     1  UNL1       -0.3794
     37 O          24.3853   70.7950    1.0315 O.3     1  UNL1       -0.3258
     38 H          20.7840   70.1255   -0.1673 H       1  UNL1        0.2106
     39 H          20.1535   72.0372    2.5495 H       1  UNL1        0.2105
     40 H          22.7499   71.1198    4.3244 H       1  UNL1        0.2105
     41 C          25.8666   72.0715    2.4475 C.3     1  UNL1        0.1693
     42 O          26.6199   70.9073    2.1036 O.3     1  UNL1       -0.3794
     43 H          27.4678   70.9766    2.5637 H       1  UNL1        0.2105
@<TRIPOS>BOND
     1    15    16   ar
     2    15    20   ar
     3    15     6    1
     4    16    17   ar
     5    16    21    2
     6    17    18   ar
     7    17    23    1
     8    18    19   ar
     9    18    22    2
    10    19    20   ar
    11     6     7    1
    12     6    11    1
    13     7     8    1
    14     7     9    1
    15     8    13    1
    16     9    10    1
    17     9    12    1
    18    10    11    1
    19    10     5    1
    20    12    14    1
    21     5     4    1
    22     4     1    1
    23     1     2    2
    24     1     3    1
    25     1    24    1
    26    24    25    1
    27    25    26    2
    28    25    27    1
    29    25    28    1
    30    28    29    1
    31    29    30    1
    32    29    37    1
    33    30    31    1
    34    30    34    1
    35    31    32    1
    36    31    35    1
    37    32    33    1
    38    32    36    1
    39    33    41    1
    40    33    37    1
    41    41    42    1
    42    34    38    1
    43    35    39    1
    44    36    40    1
    45    42    43    1
@<TRIPOS>MOLECULE
GDU
 43 45 0 0 0
SMALL
GASTEIGER

@<TRIPOS>ATOM
      1 P          20.6993   71.5230   -2.6158 P.3     1  UNL1        0.2189
      2 O          21.0559   71.1987   -4.0148 O.2     1  UNL1       -0.5170
      3 O          20.8576   73.1073   -2.3751 O.3     1  UNL1       -0.4371
      4 O          19.1769   71.0870   -2.3347 O.3     1  UNL1       -0.3112
      5 C          18.3482   72.1522   -2.8029 C.3     1  UNL1        0.1811
      6 C          17.0168   70.7352   -5.8272 C.3     1  UNL1        0.2383
      7 C          17.3851   69.5096   -4.9525 C.3     1  UNL1        0.1895
      8 O          16.5120   68.4102   -5.2217 O.3     1  UNL1       -0.3779
      9 C          17.1614   70.0552   -3.5181 C.3     1  UNL1        0.1713
     10 C          17.2339   71.5845   -3.6839 C.3     1  UNL1        0.1764
     11 O          17.5194   71.8547   -5.0672 O.3     1  UNL1       -0.3308
     12 O          15.8794   69.6587   -3.0270 O.3     1  UNL1       -0.3794
     13 H          16.7935   67.6837   -4.6483 H       1  UNL1        0.2106
     14 H          15.8757   68.6922   -3.0019 H       1  UNL1        0.2105
     15 N          17.6779   70.6585   -7.1310 N.ar    1  UNL1       -0.2551
     16 C          16.9379   70.5509   -8.2487 C.ar    1  UNL1        0.3323
     17 N          17.5208   70.4822   -9.4600 N.ar    1  UNL1       -0.2743
     18 C          18.8628   70.5103   -9.5714 C.ar    1  UNL1        0.2626
     19 C          19.6552   70.6175   -8.4023 C.ar    1  UNL1        0.0795
     20 C          19.0448   70.6891   -7.2003 C.ar    1  UNL1        0.0869
     21 O          15.7262   70.5248   -8.1640 O.2     1  UNL1       -0.2464
     22 O          19.3915   70.4433  -10.6671 O.2     1  UNL1       -0.2670
     23 H          16.9711   70.4092  -10.2564 H       1  UNL1        0.1734
     24 O          21.6796   70.7290   -1.6153 O.3     1  UNL1       -0.2703
     25 P          21.4251   71.3247   -0.1421 P.3     1  UNL1        0.2208
     26 O          20.1139   72.0093   -0.1069 O.2     1  UNL1       -0.5170
     27 O          21.4317   70.1235    0.9308 O.3     1  UNL1       -0.4371
     28 O          22.5895   72.3743    0.2221 O.3     1  UNL1       -0.2858
     29 C          22.4767   72.6511    1.6187 C.3     1  UNL1        0.2704
     30 C          22.6846   74.1471    1.8596 C.3     1  UNL1        0.1967
     31 C          24.0680   74.5486    1.3386 C.3     1  UNL1        0.1715
     32 C          25.1174   73.6328    1.9788 C.3     1  UNL1        0.1694
     33 C          24.7257   72.1747    1.7269 C.3     1  UNL1        0.1761
     34 O          21.6775   74.8878    1.1678 O.3     1  UNL1       -0.3775
     35 O          24.3366   75.9081    1.6878 O.3     1  UNL1       -0.3794
     36 O          25.1747   73.8812    3.3842 O.3     1  UNL1       -0.3794
     37 O          23.4612   71.9048    2.3303 O.3     1  UNL1       -0.3258
     38 H          20.8256   74.5983    1.5218 H       1  UNL1        0.2106
     39 H          23.6478   76.4444    1.2751 H       1  UNL1        0.2105
     40 H          25.4183   74.8096    3.4946 H       1  UNL1        0.2105
     41 C          25.7855   71.2518    2.3327 C.3     1  UNL1        0.1693
     42 O          25.1680   70.0381    2.7650 O.3     1  UNL1       -0.3794
     43 H          25.8682   69.4856    3.1388 H       1  UNL1        0.2105
@<TRIPOS>BOND
     1    15    16   ar
     2    15    20   ar
     3    15     6    1
     4    16    17   ar
     5    16    21    2
     6    17    18   ar
     7    17    23    1
     8    18    19   ar
     9    18    22    2
    10    19    20   ar
    11     6     7    1
    12     6    11    1
    13     7     8    1
    14     7     9    1
    15     8    13    1
    16     9    10    1
    17     9    12    1
    18    10    11    1
    19    10     5    1
    20    12    14    1
    21     5     4    1
    22     4     1    1
    23     1     2    2
    24     1     3    1
    25     1    24    1
    26    24    25    1
    27    25    26    2
    28    25    27    1
    29    25    28    1
    30    28    29    1
    31    29    30    1
    32    29    37    1
    33    30    31    1
    34    30    34    1
    35    31    32    1
    36    31    35    1
    37    32    33    1
    38    32    36    1
    39    33    41    1
    40    33    37    1
    41    41    42    1
    42    34    38    1
    43    35    39    1
    44    36    40    1
    45    42    43    1
@<TRIPOS>MOLECULE
GDU
 43 45 0 0 0
SMALL
GASTEIGER

@<TRIPOS>ATOM
      1 P          20.9329   71.5008   -2.0611 P.3     1  UNL1        0.2189
      2 O          22.1005   70.7264   -2.5372 O.2     1  UNL1       -0.5170
      3 O          21.3472   73.0479   -1.8941 O.3     1  UNL1       -0.4371
      4 O          19.7357   71.3780   -3.1281 O.3     1  UNL1       -0.3112
      5 C          18.6098   70.8471   -2.4274 C.3     1  UNL1        0.1811
      6 C          16.9873   70.5513   -5.6223 C.3     1  UNL1        0.2383
      7 C          16.9867   69.1104   -5.0507 C.3     1  UNL1        0.1895
      8 O          15.8474   68.3799   -5.5107 O.3     1  UNL1       -0.3779
      9 C          16.8997   69.3667   -3.5236 C.3     1  UNL1        0.1713
     10 C          17.3963   70.8150   -3.3584 C.3     1  UNL1        0.1764
     11 O          17.7682   71.2943   -4.6623 O.3     1  UNL1       -0.3308
     12 O          15.5501   69.2389   -3.0717 O.3     1  UNL1       -0.3794
     13 H          15.9069   67.4963   -5.1213 H       1  UNL1        0.2106
     14 H          15.2780   68.3296   -3.2558 H       1  UNL1        0.2105
     15 N          17.6225   70.5852   -6.9407 N.ar    1  UNL1       -0.2551
     16 C          16.8682   70.4665   -8.0476 C.ar    1  UNL1        0.3323
     17 N          17.4270   70.4981   -9.2718 N.ar    1  UNL1       -0.2743
     18 C          18.7595   70.6400   -9.4077 C.ar    1  UNL1        0.2626
     19 C          19.5672   70.7604   -8.2504 C.ar    1  UNL1        0.0795
     20 C          18.9806   70.7298   -7.0349 C.ar    1  UNL1        0.0869
     21 O          15.6648   70.3384   -7.9409 O.2     1  UNL1       -0.2464
     22 O          19.2666   70.6638  -10.5153 O.2     1  UNL1       -0.2670
     23 H          16.8668   70.4153  -10.0600 H       1  UNL1        0.1734
     24 O          20.4484   70.9200   -0.6397 O.3     1  UNL1       -0.2703
     25 P          21.6653   71.1344    0.3913 P.3     1  UNL1        0.2208
     26 O          21.9740   69.8528    1.0631 O.2     1  UNL1       -0.5170
     27 O          22.9647   71.6456   -0.4114 O.3     1  UNL1       -0.4371
     28 O          21.2501   72.2322    1.4925 O.3     1  UNL1       -0.2858
     29 C          22.4204   73.0009    1.7739 C.3     1  UNL1        0.2704
     30 C          22.9676   72.6109    3.1478 C.3     1  UNL1        0.1967
     31 C          21.8878   72.8632    4.2045 C.3     1  UNL1        0.1715
     32 C          21.4104   74.3146    4.0806 C.3     1  UNL1        0.1694
     33 C          20.9791   74.5749    2.6351 C.3     1  UNL1        0.1761
     34 O          23.3237   71.2273    3.1460 O.3     1  UNL1       -0.3775
     35 O          22.4310   72.6436    5.5081 O.3     1  UNL1       -0.3794
     36 O          22.4746   75.1994    4.4335 O.3     1  UNL1       -0.3794
     37 O          22.0905   74.3879    1.7601 O.3     1  UNL1       -0.3258
     38 H          23.9986   71.1137    2.4630 H       1  UNL1        0.2106
     39 H          22.7282   71.7254    5.5364 H       1  UNL1        0.2105
     40 H          22.7166   74.9960    5.3464 H       1  UNL1        0.2105
     41 C          20.4683   76.0119    2.5081 C.3     1  UNL1        0.1693
     42 O          19.1433   76.0939    3.0361 O.3     1  UNL1       -0.3794
     43 H          18.8593   77.0131    2.9380 H       1  UNL1        0.2105
@<TRIPOS>BOND
     1    15    16   ar
     2    15    20   ar
     3    15     6    1
     4    16    17   ar
     5    16    21    2
     6    17    18   ar
     7    17    23    1
     8    18    19   ar
     9    18    22    2
    10    19    20   ar
    11     6     7    1
    12     6    11    1
    13     7     8    1
    14     7     9    1
    15     8    13    1
    16     9    10    1
    17     9    12    1
    18    10    11    1
    19    10     5    1
    20    12    14    1
    21     5     4    1
    22     4     1    1
    23     1     2    2
    24     1     3    1
    25     1    24    1
    26    24    25    1
    27    25    26    2
    28    25    27    1
    29    25    28    1
    30    28    29    1
    31    29    30    1
    32    29    37    1
    33    30    31    1
    34    30    34    1
    35    31    32    1
    36    31    35    1
    37    32    33    1
    38    32    36    1
    39    33    41    1
    40    33    37    1
    41    41    42    1
    42    34    38    1
    43    35    39    1
    44    36    40    1
    45    42    43    1
@<TRIPOS>MOLECULE
GDU
 43 45 0 0 0
SMALL
GASTEIGER

@<TRIPOS>ATOM
      1 P          21.4400   71.3266   -3.0641 P.3     1  UNL1        0.2189
      2 O          21.0062   72.0203   -1.8311 O.2     1  UNL1       -0.5170
      3 O          22.8730   70.6358   -2.8152 O.3     1  UNL1       -0.4371
      4 O          20.3612   70.1992   -3.4538 O.3     1  UNL1       -0.3112
      5 C          19.2479   70.3705   -2.5753 C.3     1  UNL1        0.1811
      6 C          17.3479   70.4790   -5.6258 C.3     1  UNL1        0.2383
      7 C          17.1812   69.0249   -5.1151 C.3     1  UNL1        0.1895
      8 O          15.9136   68.4903   -5.5031 O.3     1  UNL1       -0.3779
      9 C          17.2560   69.2102   -3.5771 C.3     1  UNL1        0.1713
     10 C          17.9720   70.5616   -3.3974 C.3     1  UNL1        0.1764
     11 O          18.3043   71.0508   -4.7083 O.3     1  UNL1       -0.3308
     12 O          15.9431   69.2533   -3.0147 O.3     1  UNL1       -0.3794
     13 H          15.8735   67.5881   -5.1564 H       1  UNL1        0.2106
     14 H          15.5262   68.4033   -3.2110 H       1  UNL1        0.2105
     15 N          17.8730   70.4911   -6.9922 N.ar    1  UNL1       -0.2551
     16 C          17.0247   70.4215   -8.0332 C.ar    1  UNL1        0.3323
     17 N          17.4814   70.4344   -9.2994 N.ar    1  UNL1       -0.2743
     18 C          18.8038   70.5076   -9.5446 C.ar    1  UNL1        0.2626
     19 C          19.7095   70.5756   -8.4577 C.ar    1  UNL1        0.0795
     20 C          19.2244   70.5653   -7.1979 C.ar    1  UNL1        0.0869
     21 O          15.8291   70.3555   -7.8278 O.2     1  UNL1       -0.2464
     22 O          19.2184   70.5145  -10.6903 O.2     1  UNL1       -0.2670
     23 H          16.8546   70.3878  -10.0388 H       1  UNL1        0.1734
     24 O          21.5611   72.3930   -4.2643 O.3     1  UNL1       -0.2703
     25 P          22.8966   73.2496   -3.9944 P.3     1  UNL1        0.2208
     26 O          22.8849   73.7561   -2.6043 O.2     1  UNL1       -0.5170
     27 O          24.1882   72.3124   -4.2128 O.3     1  UNL1       -0.4371
     28 O          22.9559   74.4900   -5.0182 O.3     1  UNL1       -0.2858
     29 C          21.8511   74.3440   -5.9114 C.3     1  UNL1        0.2704
     30 C          22.3617   73.9097   -7.2861 C.3     1  UNL1        0.1967
     31 C          23.3441   74.9625   -7.8085 C.3     1  UNL1        0.1715
     32 C          22.6595   76.3334   -7.7702 C.3     1  UNL1        0.1694
     33 C          22.1276   76.5849   -6.3571 C.3     1  UNL1        0.1761
     34 O          23.0239   72.6487   -7.1743 O.3     1  UNL1       -0.3775
     35 O          23.7170   74.6468   -9.1515 O.3     1  UNL1       -0.3794
     36 O          21.5784   76.3539   -8.7034 O.3     1  UNL1       -0.3794
     37 O          21.1635   75.5881   -6.0212 O.3     1  UNL1       -0.3258
     38 H          22.3717   72.0201   -6.8362 H       1  UNL1        0.2106
     39 H          24.1312   73.7748   -9.1294 H       1  UNL1        0.2105
     40 H          21.9584   76.1860   -9.5756 H       1  UNL1        0.2105
     41 C          21.4719   77.9664   -6.2991 C.3     1  UNL1        0.1693
     42 O          20.3418   77.9201   -5.4264 O.3     1  UNL1       -0.3794
     43 H          19.9586   78.8080   -5.4172 H       1  UNL1        0.2105
@<TRIPOS>BOND
     1    15    16   ar
     2    15    20   ar
     3    15     6    1
     4    16    17   ar
     5    16    21    2
     6    17    18   ar
     7    17    23    1
     8    18    19   ar
     9    18    22    2
    10    19    20   ar
    11     6     7    1
    12     6    11    1
    13     7     8    1
    14     7     9    1
    15     8    13    1
    16     9    10    1
    17     9    12    1
    18    10    11    1
    19    10     5    1
    20    12    14    1
    21     5     4    1
    22     4     1    1
    23     1     2    2
    24     1     3    1
    25     1    24    1
    26    24    25    1
    27    25    26    2
    28    25    27    1
    29    25    28    1
    30    28    29    1
    31    29    30    1
    32    29    37    1
    33    30    31    1
    34    30    34    1
    35    31    32    1
    36    31    35    1
    37    32    33    1
    38    32    36    1
    39    33    41    1
    40    33    37    1
    41    41    42    1
    42    34    38    1
    43    35    39    1
    44    36    40    1
    45    42    43    1
@<TRIPOS>MOLECULE
GDU
 43 45 0 0 0
SMALL
GASTEIGER

@<TRIPOS>ATOM
      1 P          21.2089   71.5488   -1.5722 P.3     1  UNL1        0.2189
      2 O          20.8473   70.5493   -0.5428 O.2     1  UNL1       -0.5170
      3 O          22.5632   71.0903   -2.3130 O.3     1  UNL1       -0.4371
      4 O          20.0205   71.6641   -2.6498 O.3     1  UNL1       -0.3112
      5 C          19.2123   70.4957   -2.5010 C.3     1  UNL1        0.1811
      6 C          17.3173   70.5065   -5.5566 C.3     1  UNL1        0.2383
      7 C          17.1734   69.0613   -5.0145 C.3     1  UNL1        0.1895
      8 O          15.9155   68.4977   -5.3930 O.3     1  UNL1       -0.3779
      9 C          17.2418   69.2813   -3.4808 C.3     1  UNL1        0.1713
     10 C          17.9352   70.6479   -3.3293 C.3     1  UNL1        0.1764
     11 O          18.2623   71.1137   -4.6500 O.3     1  UNL1       -0.3308
     12 O          15.9271   69.3152   -2.9218 O.3     1  UNL1       -0.3794
     13 H          15.8894   67.6027   -5.0267 H       1  UNL1        0.2106
     14 H          15.5247   68.4544   -3.1002 H       1  UNL1        0.2105
     15 N          17.8451   70.4974   -6.9219 N.ar    1  UNL1       -0.2551
     16 C          16.9991   70.4080   -7.9633 C.ar    1  UNL1        0.3323
     17 N          17.4583   70.4011   -9.2286 N.ar    1  UNL1       -0.2743
     18 C          18.7809   70.4742   -9.4724 C.ar    1  UNL1        0.2626
     19 C          19.6843   70.5629   -8.3851 C.ar    1  UNL1        0.0795
     20 C          19.1967   70.5721   -7.1262 C.ar    1  UNL1        0.0869
     21 O          15.8033   70.3419   -7.7591 O.2     1  UNL1       -0.2464
     22 O          19.1978   70.4632  -10.6173 O.2     1  UNL1       -0.2670
     23 H          16.8331   70.3404   -9.9683 H       1  UNL1        0.1734
     24 O          21.4404   72.9798   -0.8714 O.3     1  UNL1       -0.2703
     25 P          22.8705   72.9136   -0.1364 P.3     1  UNL1        0.2208
     26 O          23.3143   71.5050   -0.0472 O.2     1  UNL1       -0.5170
     27 O          23.9475   73.7626   -0.9810 O.3     1  UNL1       -0.4371
     28 O          22.7434   73.5319    1.3440 O.3     1  UNL1       -0.2858
     29 C          22.7167   72.4305    2.2529 C.3     1  UNL1        0.2704
     30 C          21.3365   72.3429    2.9062 C.3     1  UNL1        0.1967
     31 C          21.0477   73.6564    3.6395 C.3     1  UNL1        0.1715
     32 C          22.2067   73.9466    4.5998 C.3     1  UNL1        0.1694
     33 C          23.5217   73.9145    3.8169 C.3     1  UNL1        0.1761
     34 O          20.3443   72.1258    1.9014 O.3     1  UNL1       -0.3775
     35 O          19.8290   73.5370    4.3763 O.3     1  UNL1       -0.3794
     36 O          22.2336   72.9568    5.6292 O.3     1  UNL1       -0.3794
     37 O          23.7148   72.6179    3.2534 O.3     1  UNL1       -0.3258
     38 H          20.5693   71.2944    1.4621 H       1  UNL1        0.2106
     39 H          19.1327   73.3435    3.7360 H       1  UNL1        0.2105
     40 H          21.3864   73.0095    6.0903 H       1  UNL1        0.2105
     41 C          24.6828   74.2370    4.7602 C.3     1  UNL1        0.1693
     42 O          25.8523   74.5275    3.9927 O.3     1  UNL1       -0.3794
     43 H          26.5586   74.7256    4.6230 H       1  UNL1        0.2105
@<TRIPOS>BOND
     1    15    16   ar
     2    15    20   ar
     3    15     6    1
     4    16    17   ar
     5    16    21    2
     6    17    18   ar
     7    17    23    1
     8    18    19   ar
     9    18    22    2
    10    19    20   ar
    11     6     7    1
    12     6    11    1
    13     7     8    1
    14     7     9    1
    15     8    13    1
    16     9    10    1
    17     9    12    1
    18    10    11    1
    19    10     5    1
    20    12    14    1
    21     5     4    1
    22     4     1    1
    23     1     2    2
    24     1     3    1
    25     1    24    1
    26    24    25    1
    27    25    26    2
    28    25    27    1
    29    25    28    1
    30    28    29    1
    31    29    30    1
    32    29    37    1
    33    30    31    1
    34    30    34    1
    35    31    32    1
    36    31    35    1
    37    32    33    1
    38    32    36    1
    39    33    41    1
    40    33    37    1
    41    41    42    1
    42    34    38    1
    43    35    39    1
    44    36    40    1
    45    42    43    1
@<TRIPOS>MOLECULE
GDU
 43 45 0 0 0
SMALL
GASTEIGER

@<TRIPOS>ATOM
      1 P          23.4545   72.0327   -3.3554 P.3     1  UNL1        0.2189
      2 O          24.2761   72.9788   -4.1425 O.2     1  UNL1       -0.5170
      3 O          24.3554   70.7696   -2.9245 O.3     1  UNL1       -0.4371
      4 O          22.8996   72.7704   -2.0383 O.3     1  UNL1       -0.3112
      5 C          21.9429   71.8917   -1.4439 C.3     1  UNL1        0.1811
      6 C          23.3664   72.4667    1.8073 C.3     1  UNL1        0.2383
      7 C          23.1262   73.8856    1.2312 C.3     1  UNL1        0.1895
      8 O          22.8449   74.8193    2.2763 O.3     1  UNL1       -0.3779
      9 C          21.8794   73.6658    0.3355 C.3     1  UNL1        0.1713
     10 C          21.8773   72.1502    0.0624 C.3     1  UNL1        0.1764
     11 O          23.0384   71.5953    0.7043 O.3     1  UNL1       -0.3308
     12 O          20.6920   74.0580    1.0270 O.3     1  UNL1       -0.3794
     13 H          22.7062   75.6781    1.8531 H       1  UNL1        0.2106
     14 H          20.7796   75.0010    1.2213 H       1  UNL1        0.2105
     15 N          24.7665   72.2972    2.1998 N.ar    1  UNL1       -0.2551
     16 C          25.3131   71.0686    2.2067 C.ar    1  UNL1        0.3323
     17 N          26.5990   70.8858    2.5600 N.ar    1  UNL1       -0.2743
     18 C          27.3600   71.9358    2.9239 C.ar    1  UNL1        0.2626
     19 C          26.7960   73.2351    2.9269 C.ar    1  UNL1        0.0795
     20 C          25.5051   73.3907    2.5640 C.ar    1  UNL1        0.0869
     21 O          24.6391   70.1118    1.8805 O.2     1  UNL1       -0.2464
     22 O          28.5228   71.7708    3.2485 O.2     1  UNL1       -0.2670
     23 H          26.9783   69.9926    2.5552 H       1  UNL1        0.1734
     24 O          22.2157   71.5261   -4.2505 O.3     1  UNL1       -0.2703
     25 P          21.9297   72.6726   -5.3431 P.3     1  UNL1        0.2208
     26 O          21.9572   73.9979   -4.6859 O.2     1  UNL1       -0.5170
     27 O          23.0622   72.6178   -6.4870 O.3     1  UNL1       -0.4371
     28 O          20.4843   72.4325   -6.0088 O.3     1  UNL1       -0.2858
     29 C          20.4598   71.0817   -6.4718 C.3     1  UNL1        0.2704
     30 C          20.0209   71.0534   -7.9367 C.3     1  UNL1        0.1967
     31 C          18.6328   71.6904   -8.0536 C.3     1  UNL1        0.1715
     32 C          17.6862   70.9857   -7.0754 C.3     1  UNL1        0.1694
     33 C          18.3018   71.0209   -5.6744 C.3     1  UNL1        0.1761
     34 O          20.9546   71.7879   -8.7303 O.3     1  UNL1       -0.3775
     35 O          18.1463   71.5397   -9.3890 O.3     1  UNL1       -0.3794
     36 O          17.4973   69.6307   -7.4856 O.3     1  UNL1       -0.3794
     37 O          19.5478   70.3256   -5.6785 O.3     1  UNL1       -0.3258
     38 H          21.8133   71.3571   -8.6210 H       1  UNL1        0.2106
     39 H          18.7765   71.9862   -9.9684 H       1  UNL1        0.2105
     40 H          17.1145   69.6574   -8.3722 H       1  UNL1        0.2105
     41 C          17.3484   70.3497   -4.6832 C.3     1  UNL1        0.1693
     42 O          15.9995   70.5606   -5.1037 O.3     1  UNL1       -0.3794
     43 H          15.4322   70.1225   -4.4545 H       1  UNL1        0.2105
@<TRIPOS>BOND
     1    15    16   ar
     2    15    20   ar
     3    15     6    1
     4    16    17   ar
     5    16    21    2
     6    17    18   ar
     7    17    23    1
     8    18    19   ar
     9    18    22    2
    10    19    20   ar
    11     6     7    1
    12     6    11    1
    13     7     8    1
    14     7     9    1
    15     8    13    1
    16     9    10    1
    17     9    12    1
    18    10    11    1
    19    10     5    1
    20    12    14    1
    21     5     4    1
    22     4     1    1
    23     1     2    2
    24     1     3    1
    25     1    24    1
    26    24    25    1
    27    25    26    2
    28    25    27    1
    29    25    28    1
    30    28    29    1
    31    29    30    1
    32    29    37    1
    33    30    31    1
    34    30    34    1
    35    31    32    1
    36    31    35    1
    37    32    33    1
    38    32    36    1
    39    33    41    1
    40    33    37    1
    41    41    42    1
    42    34    38    1
    43    35    39    1
    44    36    40    1
    45    42    43    1
@<TRIPOS>MOLECULE
GDU
 43 45 0 0 0
SMALL
GASTEIGER

@<TRIPOS>ATOM
      1 P          20.5233   71.1427   -1.6241 P.3     1  UNL1        0.2189
      2 O          20.5120   72.6221   -1.5943 O.2     1  UNL1       -0.5170
      3 O          20.8288   70.5786   -0.1471 O.3     1  UNL1       -0.4371
      4 O          19.0906   70.6046   -2.1184 O.3     1  UNL1       -0.3112
      5 C          18.3869   71.7287   -2.6491 C.3     1  UNL1        0.1811
      6 C          16.9935   70.5535   -5.7482 C.3     1  UNL1        0.2383
      7 C          17.3545   69.2626   -4.9696 C.3     1  UNL1        0.1895
      8 O          16.4611   68.1983   -5.3047 O.3     1  UNL1       -0.3779
      9 C          17.1585   69.7062   -3.4965 C.3     1  UNL1        0.1713
     10 C          17.2523   71.2423   -3.5526 C.3     1  UNL1        0.1764
     11 O          17.5234   71.6078   -4.9168 O.3     1  UNL1       -0.3308
     12 O          15.8773   69.2937   -3.0168 O.3     1  UNL1       -0.3794
     13 H          16.7391   67.4282   -4.7894 H       1  UNL1        0.2106
     14 H          15.8590   68.3281   -3.0615 H       1  UNL1        0.2105
     15 N          17.6358   70.5618   -7.0636 N.ar    1  UNL1       -0.2551
     16 C          16.8818   70.4866   -8.1744 C.ar    1  UNL1        0.3323
     17 N          17.4472   70.4959   -9.3960 N.ar    1  UNL1       -0.2743
     18 C          18.7858   70.5712   -9.5251 C.ar    1  UNL1        0.2626
     19 C          19.5930   70.6452   -8.3636 C.ar    1  UNL1        0.0795
     20 C          18.9999   70.6383   -7.1509 C.ar    1  UNL1        0.0869
     21 O          15.6729   70.4187   -8.0738 O.2     1  UNL1       -0.2464
     22 O          19.2987   70.5749  -10.6302 O.2     1  UNL1       -0.2670
     23 H          16.8874   70.4452  -10.1870 H       1  UNL1        0.1734
     24 O          21.6672   70.6361   -2.6376 O.3     1  UNL1       -0.2703
     25 P          23.0129   71.4334   -2.2588 P.3     1  UNL1        0.2208
     26 O          23.1871   71.4364   -0.7896 O.2     1  UNL1       -0.5170
     27 O          24.2767   70.7101   -2.9471 O.3     1  UNL1       -0.4371
     28 O          22.9080   72.9486   -2.7909 O.3     1  UNL1       -0.2858
     29 C          24.0358   73.1697   -3.6387 C.3     1  UNL1        0.2704
     30 C          24.4299   74.6467   -3.5870 C.3     1  UNL1        0.1967
     31 C          23.2385   75.4967   -4.0391 C.3     1  UNL1        0.1715
     32 C          22.7700   74.9942   -5.4094 C.3     1  UNL1        0.1694
     33 C          22.4997   73.4901   -5.3222 C.3     1  UNL1        0.1761
     34 O          24.7913   74.9991   -2.2504 O.3     1  UNL1       -0.3775
     35 O          23.6354   76.8661   -4.1373 O.3     1  UNL1       -0.3794
     36 O          23.7839   75.2467   -6.3832 O.3     1  UNL1       -0.3794
     37 O          23.7021   72.8043   -4.9757 O.3     1  UNL1       -0.3258
     38 H          25.5382   74.4359   -2.0057 H       1  UNL1        0.2106
     39 H          23.9326   77.1350   -3.2588 H       1  UNL1        0.2105
     40 H          23.9245   76.2024   -6.3994 H       1  UNL1        0.2105
     41 C          21.9983   72.9844   -6.6768 C.3     1  UNL1        0.1693
     42 O          23.1108   72.5669   -7.4699 O.3     1  UNL1       -0.3794
     43 H          22.7527   72.2555   -8.3125 H       1  UNL1        0.2105
@<TRIPOS>BOND
     1    15    16   ar
     2    15    20   ar
     3    15     6    1
     4    16    17   ar
     5    16    21    2
     6    17    18   ar
     7    17    23    1
     8    18    19   ar
     9    18    22    2
    10    19    20   ar
    11     6     7    1
    12     6    11    1
    13     7     8    1
    14     7     9    1
    15     8    13    1
    16     9    10    1
    17     9    12    1
    18    10    11    1
    19    10     5    1
    20    12    14    1
    21     5     4    1
    22     4     1    1
    23     1     2    2
    24     1     3    1
    25     1    24    1
    26    24    25    1
    27    25    26    2
    28    25    27    1
    29    25    28    1
    30    28    29    1
    31    29    30    1
    32    29    37    1
    33    30    31    1
    34    30    34    1
    35    31    32    1
    36    31    35    1
    37    32    33    1
    38    32    36    1
    39    33    41    1
    40    33    37    1
    41    41    42    1
    42    34    38    1
    43    35    39    1
    44    36    40    1
    45    42    43    1
@<TRIPOS>MOLECULE
GDU
 43 45 0 0 0
SMALL
GASTEIGER

@<TRIPOS>ATOM
      1 P          20.7393   71.5153   -0.9896 P.3     1  UNL1        0.2189
      2 O          19.8389   70.3442   -1.0751 O.2     1  UNL1       -0.5170
      3 O          22.1515   71.1576   -1.6757 O.3     1  UNL1       -0.4371
      4 O          20.0719   72.7629   -1.7544 O.3     1  UNL1       -0.3112
      5 C          20.2427   72.5301   -3.1533 C.3     1  UNL1        0.1811
      6 C          17.9361   72.0611   -5.8713 C.3     1  UNL1        0.2383
      7 C          17.6181   70.9062   -4.8874 C.3     1  UNL1        0.1895
      8 O          16.2363   70.5464   -4.9529 O.3     1  UNL1       -0.3779
      9 C          17.9589   71.5448   -3.5158 C.3     1  UNL1        0.1713
     10 C          18.9027   72.7093   -3.8693 C.3     1  UNL1        0.1764
     11 O          19.1026   72.6846   -5.2932 O.3     1  UNL1       -0.3308
     12 O          16.7733   72.0280   -2.8812 O.3     1  UNL1       -0.3794
     13 H          16.1053   69.8263   -4.3204 H       1  UNL1        0.2106
     14 H          16.1995   71.2628   -2.7400 H       1  UNL1        0.2105
     15 N          18.2384   71.5374   -7.2044 N.ar    1  UNL1       -0.2551
     16 C          17.2422   71.3445   -8.0868 C.ar    1  UNL1        0.3323
     17 N          17.4936   70.8675   -9.3201 N.ar    1  UNL1       -0.2743
     18 C          18.7533   70.5648   -9.6884 C.ar    1  UNL1        0.2626
     19 C          19.8120   70.7574   -8.7674 C.ar    1  UNL1        0.0795
     20 C          19.5326   71.2412   -7.5384 C.ar    1  UNL1        0.0869
     21 O          16.1008   71.6135   -7.7691 O.2     1  UNL1       -0.2464
     22 O          18.9813   70.1284  -10.8029 O.2     1  UNL1       -0.2670
     23 H          16.7629   70.7385   -9.9456 H       1  UNL1        0.1734
     24 O          20.9768   71.8966    0.5566 O.3     1  UNL1       -0.2703
     25 P          22.5644   71.8376    0.8132 P.3     1  UNL1        0.2208
     26 O          22.9814   70.4307    1.0020 O.2     1  UNL1       -0.5170
     27 O          23.3364   72.4599   -0.4560 O.3     1  UNL1       -0.4371
     28 O          22.9281   72.6875    2.1306 O.3     1  UNL1       -0.2858
     29 C          21.7505   73.4068    2.4986 C.3     1  UNL1        0.2704
     30 C          21.8855   74.8649    2.0568 C.3     1  UNL1        0.1967
     31 C          23.1224   75.4753    2.7230 C.3     1  UNL1        0.1715
     32 C          23.0203   75.2593    4.2371 C.3     1  UNL1        0.1694
     33 C          22.8010   73.7699    4.5138 C.3     1  UNL1        0.1761
     34 O          22.0271   74.9234    0.6363 O.3     1  UNL1       -0.3775
     35 O          23.1800   76.8745    2.4380 O.3     1  UNL1       -0.3794
     36 O          21.9228   76.0129    4.7543 O.3     1  UNL1       -0.3794
     37 O          21.5793   73.3434    3.9126 O.3     1  UNL1       -0.3258
     38 H          21.2316   74.5230    0.2599 H       1  UNL1        0.2106
     39 H          23.2311   76.9627    1.4778 H       1  UNL1        0.2105
     40 H          22.1007   76.9408    4.5527 H       1  UNL1        0.2105
     41 C          22.7319   73.5384    6.0250 C.3     1  UNL1        0.1693
     42 O          21.3685   73.5766    6.4500 O.3     1  UNL1       -0.3794
     43 H          21.3688   73.4261    7.4053 H       1  UNL1        0.2105
@<TRIPOS>BOND
     1    15    16   ar
     2    15    20   ar
     3    15     6    1
     4    16    17   ar
     5    16    21    2
     6    17    18   ar
     7    17    23    1
     8    18    19   ar
     9    18    22    2
    10    19    20   ar
    11     6     7    1
    12     6    11    1
    13     7     8    1
    14     7     9    1
    15     8    13    1
    16     9    10    1
    17     9    12    1
    18    10    11    1
    19    10     5    1
    20    12    14    1
    21     5     4    1
    22     4     1    1
    23     1     2    2
    24     1     3    1
    25     1    24    1
    26    24    25    1
    27    25    26    2
    28    25    27    1
    29    25    28    1
    30    28    29    1
    31    29    30    1
    32    29    37    1
    33    30    31    1
    34    30    34    1
    35    31    32    1
    36    31    35    1
    37    32    33    1
    38    32    36    1
    39    33    41    1
    40    33    37    1
    41    41    42    1
    42    34    38    1
    43    35    39    1
    44    36    40    1
    45    42    43    1
@<TRIPOS>MOLECULE
GDU
 43 45 0 0 0
SMALL
GASTEIGER

@<TRIPOS>ATOM
      1 P          20.3998   71.7854   -2.2596 P.3     1  UNL1        0.2189
      2 O          20.6189   73.1745   -1.7993 O.2     1  UNL1       -0.5170
      3 O          19.9821   70.8645   -1.0065 O.3     1  UNL1       -0.4371
      4 O          19.2248   71.7625   -3.3576 O.3     1  UNL1       -0.3112
      5 C          18.0059   71.5172   -2.6543 C.3     1  UNL1        0.1811
      6 C          16.7735   70.5071   -5.8774 C.3     1  UNL1        0.2383
      7 C          17.0187   69.1769   -5.1202 C.3     1  UNL1        0.1895
      8 O          16.1008   68.1689   -5.5499 O.3     1  UNL1       -0.3779
      9 C          16.7437   69.5848   -3.6494 C.3     1  UNL1        0.1713
     10 C          16.9140   71.1153   -3.6474 C.3     1  UNL1        0.1764
     11 O          17.2948   71.5080   -4.9774 O.3     1  UNL1       -0.3308
     12 O          15.4144   69.2221   -3.2706 O.3     1  UNL1       -0.3794
     13 H          16.3059   67.3707   -5.0432 H       1  UNL1        0.2106
     14 H          15.3534   68.2604   -3.3488 H       1  UNL1        0.2105
     15 N          17.5041   70.5234   -7.1458 N.ar    1  UNL1       -0.2551
     16 C          16.8249   70.5386   -8.3063 C.ar    1  UNL1        0.3323
     17 N          17.4725   70.5572   -9.4863 N.ar    1  UNL1       -0.2743
     18 C          18.8189   70.5510   -9.5232 C.ar    1  UNL1        0.2626
     19 C          19.5474   70.5292   -8.3087 C.ar    1  UNL1        0.0795
     20 C          18.8730   70.5151   -7.1393 C.ar    1  UNL1        0.0869
     21 O          15.6101   70.5449   -8.2889 O.2     1  UNL1       -0.2464
     22 O          19.4059   70.5630  -10.5908 O.2     1  UNL1       -0.2670
     23 H          16.9663   70.5724  -10.3141 H       1  UNL1        0.1734
     24 O          21.7574   71.2170   -2.9126 O.3     1  UNL1       -0.2703
     25 P          22.9788   71.8822   -2.1028 P.3     1  UNL1        0.2208
     26 O          24.0818   70.9034   -1.9826 O.2     1  UNL1       -0.5170
     27 O          23.5012   73.1841   -2.8942 O.3     1  UNL1       -0.4371
     28 O          22.4795   72.3126   -0.6347 O.3     1  UNL1       -0.2858
     29 C          23.3707   71.7049    0.3014 C.3     1  UNL1        0.2704
     30 C          22.5778   71.2107    1.5124 C.3     1  UNL1        0.1967
     31 C          21.8505   72.3983    2.1505 C.3     1  UNL1        0.1715
     32 C          22.8755   73.4988    2.4469 C.3     1  UNL1        0.1694
     33 C          23.6451   73.8210    1.1636 C.3     1  UNL1        0.1761
     34 O          21.6243   70.2327    1.0934 O.3     1  UNL1       -0.3775
     35 O          21.2250   71.9814    3.3660 O.3     1  UNL1       -0.3794
     36 O          23.7830   73.0479    3.4535 O.3     1  UNL1       -0.3794
     37 O          24.3441   72.6600    0.7172 O.3     1  UNL1       -0.3258
     38 H          22.1247   69.5090    0.6924 H       1  UNL1        0.2106
     39 H          20.5998   71.2831    3.1339 H       1  UNL1        0.2105
     40 H          23.2553   72.8520    4.2386 H       1  UNL1        0.2105
     41 C          24.6481   74.9432    1.4405 C.3     1  UNL1        0.1693
     42 O          24.1787   75.7430    2.5272 O.3     1  UNL1       -0.3794
     43 H          24.8378   76.4362    2.6697 H       1  UNL1        0.2105
@<TRIPOS>BOND
     1    15    16   ar
     2    15    20   ar
     3    15     6    1
     4    16    17   ar
     5    16    21    2
     6    17    18   ar
     7    17    23    1
     8    18    19   ar
     9    18    22    2
    10    19    20   ar
    11     6     7    1
    12     6    11    1
    13     7     8    1
    14     7     9    1
    15     8    13    1
    16     9    10    1
    17     9    12    1
    18    10    11    1
    19    10     5    1
    20    12    14    1
    21     5     4    1
    22     4     1    1
    23     1     2    2
    24     1     3    1
    25     1    24    1
    26    24    25    1
    27    25    26    2
    28    25    27    1
    29    25    28    1
    30    28    29    1
    31    29    30    1
    32    29    37    1
    33    30    31    1
    34    30    34    1
    35    31    32    1
    36    31    35    1
    37    32    33    1
    38    32    36    1
    39    33    41    1
    40    33    37    1
    41    41    42    1
    42    34    38    1
    43    35    39    1
    44    36    40    1
    45    42    43    1
@<TRIPOS>MOLECULE
GDU
 43 45 0 0 0
SMALL
GASTEIGER

@<TRIPOS>ATOM
      1 P          22.8463   72.6951   -2.5364 P.3     1  UNL1        0.2189
      2 O          23.3193   71.3017   -2.3812 O.2     1  UNL1       -0.5170
      3 O          24.0966   73.6516   -2.8752 O.3     1  UNL1       -0.4371
      4 O          21.7747   72.7683   -3.7336 O.3     1  UNL1       -0.3112
      5 C          22.4918   72.5307   -4.9459 C.3     1  UNL1        0.1811
      6 C          19.4905   70.8094   -5.9237 C.3     1  UNL1        0.2383
      7 C          19.2919   72.2590   -6.4355 C.3     1  UNL1        0.1895
      8 O          18.4896   72.2768   -7.6184 O.3     1  UNL1       -0.3779
      9 C          20.7470   72.6955   -6.7476 C.3     1  UNL1        0.1713
     10 C          21.6133   71.7344   -5.9125 C.3     1  UNL1        0.1764
     11 O          20.7212   70.8827   -5.1730 O.3     1  UNL1       -0.3308
     12 O          21.0250   72.5473   -8.1414 O.3     1  UNL1       -0.3794
     13 H          18.4043   73.2032   -7.8836 H       1  UNL1        0.2106
     14 H          20.4126   73.1284   -8.6125 H       1  UNL1        0.2105
     15 N          18.3807   70.4096   -5.0568 N.ar    1  UNL1       -0.2551
     16 C          17.2941   69.8249   -5.5915 C.ar    1  UNL1        0.3323
     17 N          16.2615   69.4446   -4.8163 N.ar    1  UNL1       -0.2743
     18 C          16.2965   69.6540   -3.4862 C.ar    1  UNL1        0.2626
     19 C          17.4322   70.2740   -2.9098 C.ar    1  UNL1        0.0795
     20 C          18.4556   70.6417   -3.7098 C.ar    1  UNL1        0.0869
     21 O          17.2483   69.6290   -6.7897 O.2     1  UNL1       -0.2464
     22 O          15.3603   69.3144   -2.7843 O.2     1  UNL1       -0.2670
     23 H          15.4871   69.0201   -5.2185 H       1  UNL1        0.1734
     24 O          22.1558   73.1821   -1.1658 O.3     1  UNL1       -0.2703
     25 P          23.3408   73.4060   -0.1002 P.3     1  UNL1        0.2208
     26 O          24.0529   72.1281    0.1209 O.2     1  UNL1       -0.5170
     27 O          24.3732   74.5037   -0.6687 O.3     1  UNL1       -0.4371
     28 O          22.7213   73.9240    1.2919 O.3     1  UNL1       -0.2858
     29 C          22.9202   72.8819    2.2480 C.3     1  UNL1        0.2704
     30 C          21.5630   72.3485    2.7096 C.3     1  UNL1        0.1967
     31 C          20.7578   73.4984    3.3226 C.3     1  UNL1        0.1715
     32 C          21.6040   74.1613    4.4153 C.3     1  UNL1        0.1694
     33 C          22.9583   74.5592    3.8233 C.3     1  UNL1        0.1761
     34 O          20.8554   71.8093    1.5917 O.3     1  UNL1       -0.3775
     35 O          19.5494   72.9889    3.8906 O.3     1  UNL1       -0.3794
     36 O          21.7989   73.2430    5.4917 O.3     1  UNL1       -0.3794
     37 O          23.6437   73.3950    3.3642 O.3     1  UNL1       -0.3258
     38 H          21.4009   71.0956    1.2341 H       1  UNL1        0.2106
     39 H          19.0566   72.5720    3.1725 H       1  UNL1        0.2105
     40 H          20.9222   73.0166    5.8286 H       1  UNL1        0.2105
     41 C          23.7985   75.2532    4.8977 C.3     1  UNL1        0.1693
     42 O          24.3753   74.2701    5.7590 O.3     1  UNL1       -0.3794
     43 H          24.8959   74.7475    6.4195 H       1  UNL1        0.2105
@<TRIPOS>BOND
     1    15    16   ar
     2    15    20   ar
     3    15     6    1
     4    16    17   ar
     5    16    21    2
     6    17    18   ar
     7    17    23    1
     8    18    19   ar
     9    18    22    2
    10    19    20   ar
    11     6     7    1
    12     6    11    1
    13     7     8    1
    14     7     9    1
    15     8    13    1
    16     9    10    1
    17     9    12    1
    18    10    11    1
    19    10     5    1
    20    12    14    1
    21     5     4    1
    22     4     1    1
    23     1     2    2
    24     1     3    1
    25     1    24    1
    26    24    25    1
    27    25    26    2
    28    25    27    1
    29    25    28    1
    30    28    29    1
    31    29    30    1
    32    29    37    1
    33    30    31    1
    34    30    34    1
    35    31    32    1
    36    31    35    1
    37    32    33    1
    38    32    36    1
    39    33    41    1
    40    33    37    1
    41    41    42    1
    42    34    38    1
    43    35    39    1
    44    36    40    1
    45    42    43    1
@<TRIPOS>MOLECULE
GDU
 43 45 0 0 0
SMALL
GASTEIGER

@<TRIPOS>ATOM
      1 P          21.6072   71.5219   -0.5288 P.3     1  UNL1        0.2189
      2 O          20.9758   70.4865    0.3190 O.2     1  UNL1       -0.5170
      3 O          22.8981   70.8999   -1.2635 O.3     1  UNL1       -0.4371
      4 O          20.5531   72.0279   -1.6332 O.3     1  UNL1       -0.3112
      5 C          20.3471   70.9411   -2.5371 C.3     1  UNL1        0.1811
      6 C          17.9217   70.7235   -5.1823 C.3     1  UNL1        0.2383
      7 C          17.9140   69.3170   -4.5307 C.3     1  UNL1        0.1895
      8 O          16.6214   68.7151   -4.6321 O.3     1  UNL1       -0.3779
      9 C          18.2587   69.6414   -3.0538 C.3     1  UNL1        0.1713
     10 C          18.9360   71.0227   -3.1223 C.3     1  UNL1        0.1764
     11 O          19.0030   71.4013   -4.5080 O.3     1  UNL1       -0.3308
     12 O          17.0692   69.6986   -2.2641 O.3     1  UNL1       -0.3794
     13 H          16.6843   67.8469   -4.2102 H       1  UNL1        0.2106
     14 H          16.6610   68.8233   -2.3087 H       1  UNL1        0.2105
     15 N          18.1888   70.6276   -6.6184 N.ar    1  UNL1       -0.2551
     16 C          17.1630   70.6060   -7.4876 C.ar    1  UNL1        0.3323
     17 N          17.3814   70.5219   -8.8131 N.ar    1  UNL1       -0.2743
     18 C          18.6382   70.4476   -9.2918 C.ar    1  UNL1        0.2626
     19 C          19.7284   70.4634   -8.3877 C.ar    1  UNL1        0.0795
     20 C          19.4813   70.5528   -7.0635 C.ar    1  UNL1        0.0869
     21 O          16.0238   70.6728   -7.0707 O.2     1  UNL1       -0.2464
     22 O          18.8367   70.3666  -10.4912 O.2     1  UNL1       -0.2670
     23 H          16.6293   70.5118   -9.4263 H       1  UNL1        0.1734
     24 O          22.0610   72.7635    0.3904 O.3     1  UNL1       -0.2703
     25 P          20.8416   73.0707    1.3947 P.3     1  UNL1        0.2208
     26 O          19.5849   73.1889    0.6227 O.2     1  UNL1       -0.5170
     27 O          20.7066   71.8686    2.4581 O.3     1  UNL1       -0.4371
     28 O          21.1235   74.4485    2.1771 O.3     1  UNL1       -0.2858
     29 C          22.4312   74.8805    1.7989 C.3     1  UNL1        0.2704
     30 C          23.2620   75.1484    3.0548 C.3     1  UNL1        0.1967
     31 C          22.5614   76.2189    3.8971 C.3     1  UNL1        0.1715
     32 C          22.3005   77.4443    3.0140 C.3     1  UNL1        0.1694
     33 C          21.5402   77.0021    1.7612 C.3     1  UNL1        0.1761
     34 O          23.3842   73.9441    3.8137 O.3     1  UNL1       -0.3775
     35 O          23.3959   76.5861    4.9976 O.3     1  UNL1       -0.3794
     36 O          23.5448   78.0369    2.6394 O.3     1  UNL1       -0.3794
     37 O          22.3301   76.0717    1.0221 O.3     1  UNL1       -0.3258
     38 H          23.8229   73.2982    3.2434 H       1  UNL1        0.2106
     39 H          23.5429   75.7854    5.5169 H       1  UNL1        0.2105
     40 H          23.9900   78.2938    3.4574 H       1  UNL1        0.2105
     41 C          21.2444   78.2239    0.8884 C.3     1  UNL1        0.1693
     42 O          21.1219   79.3815    1.7167 O.3     1  UNL1       -0.3794
     43 H          20.9369   80.1274    1.1296 H       1  UNL1        0.2105
@<TRIPOS>BOND
     1    15    16   ar
     2    15    20   ar
     3    15     6    1
     4    16    17   ar
     5    16    21    2
     6    17    18   ar
     7    17    23    1
     8    18    19   ar
     9    18    22    2
    10    19    20   ar
    11     6     7    1
    12     6    11    1
    13     7     8    1
    14     7     9    1
    15     8    13    1
    16     9    10    1
    17     9    12    1
    18    10    11    1
    19    10     5    1
    20    12    14    1
    21     5     4    1
    22     4     1    1
    23     1     2    2
    24     1     3    1
    25     1    24    1
    26    24    25    1
    27    25    26    2
    28    25    27    1
    29    25    28    1
    30    28    29    1
    31    29    30    1
    32    29    37    1
    33    30    31    1
    34    30    34    1
    35    31    32    1
    36    31    35    1
    37    32    33    1
    38    32    36    1
    39    33    41    1
    40    33    37    1
    41    41    42    1
    42    34    38    1
    43    35    39    1
    44    36    40    1
    45    42    43    1
@<TRIPOS>MOLECULE
GDU
 43 45 0 0 0
SMALL
GASTEIGER

@<TRIPOS>ATOM
      1 P          20.7149   71.4630   -1.0851 P.3     1  UNL1        0.2189
      2 O          20.7555   70.4509   -0.0065 O.2     1  UNL1       -0.5170
      3 O          21.7322   71.0376   -2.2587 O.3     1  UNL1       -0.4371
      4 O          19.2224   71.5578   -1.6769 O.3     1  UNL1       -0.3112
      5 C          19.0034   70.3699   -2.4394 C.3     1  UNL1        0.1811
      6 C          17.2131   70.4535   -5.5563 C.3     1  UNL1        0.2383
      7 C          17.0530   68.9955   -5.0546 C.3     1  UNL1        0.1895
      8 O          15.8095   68.4403   -5.4891 O.3     1  UNL1       -0.3779
      9 C          17.0691   69.1782   -3.5146 C.3     1  UNL1        0.1713
     10 C          17.7549   70.5413   -3.3066 C.3     1  UNL1        0.1764
     11 O          18.1258   71.0392   -4.6038 O.3     1  UNL1       -0.3308
     12 O          15.7362   69.1976   -2.9999 O.3     1  UNL1       -0.3794
     13 H          15.7724   67.5367   -5.1457 H       1  UNL1        0.2106
     14 H          15.3413   68.3411   -3.2126 H       1  UNL1        0.2105
     15 N          17.7868   70.4779   -6.9028 N.ar    1  UNL1       -0.2551
     16 C          16.9743   70.4696   -7.9742 C.ar    1  UNL1        0.3323
     17 N          17.4761   70.4951   -9.2229 N.ar    1  UNL1       -0.2743
     18 C          18.8083   70.5195   -9.4200 C.ar    1  UNL1        0.2626
     19 C          19.6766   70.5227   -8.3009 C.ar    1  UNL1        0.0795
     20 C          19.1466   70.5010   -7.0594 C.ar    1  UNL1        0.0869
     21 O          15.7704   70.4482   -7.8122 O.2     1  UNL1       -0.2464
     22 O          19.2636   70.5378  -10.5500 O.2     1  UNL1       -0.2670
     23 H          16.8748   70.4931   -9.9846 H       1  UNL1        0.1734
     24 O          21.1505   72.8953   -0.4924 O.3     1  UNL1       -0.2703
     25 P          21.1643   73.9269   -1.7275 P.3     1  UNL1        0.2208
     26 O          20.4019   73.3526   -2.8581 O.2     1  UNL1       -0.5170
     27 O          20.4862   75.3157   -1.2741 O.3     1  UNL1       -0.4371
     28 O          22.6832   74.1971   -2.1855 O.3     1  UNL1       -0.2858
     29 C          22.6637   74.3769   -3.6022 C.3     1  UNL1        0.2704
     30 C          24.0239   73.9879   -4.1836 C.3     1  UNL1        0.1967
     31 C          25.1079   74.8599   -3.5426 C.3     1  UNL1        0.1715
     32 C          24.7202   76.3324   -3.7190 C.3     1  UNL1        0.1694
     33 C          23.3069   76.5441   -3.1706 C.3     1  UNL1        0.1761
     34 O          24.2877   72.6117   -3.9048 O.3     1  UNL1       -0.3775
     35 O          26.3628   74.6118   -4.1799 O.3     1  UNL1       -0.3794
     36 O          24.7559   76.6731   -5.1056 O.3     1  UNL1       -0.3794
     37 O          22.3814   75.7417   -3.9025 O.3     1  UNL1       -0.3258
     38 H          23.5786   72.1021   -4.3200 H       1  UNL1        0.2106
     39 H          26.5600   73.6749   -4.0543 H       1  UNL1        0.2105
     40 H          25.6602   76.5193   -5.4084 H       1  UNL1        0.2105
     41 C          22.9229   78.0188   -3.3106 C.3     1  UNL1        0.1693
     42 O          23.1345   78.4392   -4.6595 O.3     1  UNL1       -0.3794
     43 H          22.8805   79.3713   -4.7053 H       1  UNL1        0.2105
@<TRIPOS>BOND
     1    15    16   ar
     2    15    20   ar
     3    15     6    1
     4    16    17   ar
     5    16    21    2
     6    17    18   ar
     7    17    23    1
     8    18    19   ar
     9    18    22    2
    10    19    20   ar
    11     6     7    1
    12     6    11    1
    13     7     8    1
    14     7     9    1
    15     8    13    1
    16     9    10    1
    17     9    12    1
    18    10    11    1
    19    10     5    1
    20    12    14    1
    21     5     4    1
    22     4     1    1
    23     1     2    2
    24     1     3    1
    25     1    24    1
    26    24    25    1
    27    25    26    2
    28    25    27    1
    29    25    28    1
    30    28    29    1
    31    29    30    1
    32    29    37    1
    33    30    31    1
    34    30    34    1
    35    31    32    1
    36    31    35    1
    37    32    33    1
    38    32    36    1
    39    33    41    1
    40    33    37    1
    41    41    42    1
    42    34    38    1
    43    35    39    1
    44    36    40    1
    45    42    43    1
@<TRIPOS>MOLECULE
GDU
 43 45 0 0 0
SMALL
GASTEIGER

@<TRIPOS>ATOM
      1 P          21.1343   71.8518    0.1193 P.3     1  UNL1        0.2189
      2 O          20.4020   72.6117    1.1565 O.2     1  UNL1       -0.5170
      3 O          21.2465   70.3082    0.5639 O.3     1  UNL1       -0.4371
      4 O          20.3440   71.9516   -1.2780 O.3     1  UNL1       -0.3112
      5 C          21.1652   72.7134   -2.1644 C.3     1  UNL1        0.1811
      6 C          21.0241   71.0272   -5.3368 C.3     1  UNL1        0.2383
      7 C          21.7540   72.3613   -5.6373 C.3     1  UNL1        0.1895
      8 O          22.6874   72.2019   -6.7082 O.3     1  UNL1       -0.3779
      9 C          22.4887   72.6382   -4.2999 C.3     1  UNL1        0.1713
     10 C          21.7111   71.8030   -3.2658 C.3     1  UNL1        0.1764
     11 O          20.6227   71.1662   -3.9573 O.3     1  UNL1       -0.3308
     12 O          23.8492   72.2084   -4.3789 O.3     1  UNL1       -0.3794
     13 H          23.1052   73.0637   -6.8445 H       1  UNL1        0.2106
     14 H          24.2659   72.7255   -5.0815 H       1  UNL1        0.2105
     15 N          19.8533   70.8711   -6.2015 N.ar    1  UNL1       -0.2551
     16 C          19.9827   70.2689   -7.3968 C.ar    1  UNL1        0.3323
     17 N          18.9214   70.1096   -8.2093 N.ar    1  UNL1       -0.2743
     18 C          17.7080   70.5625   -7.8397 C.ar    1  UNL1        0.2626
     19 C          17.5579   71.2040   -6.5858 C.ar    1  UNL1        0.0795
     20 C          18.6379   71.3469   -5.7886 C.ar    1  UNL1        0.0869
     21 O          21.0709   69.8547   -7.7437 O.2     1  UNL1       -0.2464
     22 O          16.7477   70.4230   -8.5765 O.2     1  UNL1       -0.2670
     23 H          19.0322   69.6687   -9.0667 H       1  UNL1        0.1734
     24 O          22.6118   72.4679   -0.0532 O.3     1  UNL1       -0.2703
     25 P          23.4777   71.9634    1.2060 P.3     1  UNL1        0.2208
     26 O          22.5711   71.6377    2.3290 O.2     1  UNL1       -0.5170
     27 O          24.3115   70.6491    0.7916 O.3     1  UNL1       -0.4371
     28 O          24.4972   73.1240    1.6573 O.3     1  UNL1       -0.2858
     29 C          24.1175   73.5203    2.9758 C.3     1  UNL1        0.2704
     30 C          23.4397   74.8903    2.9204 C.3     1  UNL1        0.1967
     31 C          24.4129   75.9037    2.3102 C.3     1  UNL1        0.1715
     32 C          25.7267   75.8573    3.0985 C.3     1  UNL1        0.1694
     33 C          26.2324   74.4131    3.1387 C.3     1  UNL1        0.1761
     34 O          22.2627   74.8097    2.1146 O.3     1  UNL1       -0.3775
     35 O          23.8505   77.2153    2.3864 O.3     1  UNL1       -0.3794
     36 O          25.5028   76.3275    4.4285 O.3     1  UNL1       -0.3794
     37 O          25.2771   73.5870    3.8025 O.3     1  UNL1       -0.3258
     38 H          21.6836   74.1570    2.5311 H       1  UNL1        0.2106
     39 H          23.0233   77.1945    1.8889 H       1  UNL1        0.2105
     40 H          25.1808   77.2353    4.3539 H       1  UNL1        0.2105
     41 C          27.5620   74.3610    3.8945 C.3     1  UNL1        0.1693
     42 O          27.8863   73.0020    4.1929 O.3     1  UNL1       -0.3794
     43 H          28.7290   73.0131    4.6673 H       1  UNL1        0.2105
@<TRIPOS>BOND
     1    15    16   ar
     2    15    20   ar
     3    15     6    1
     4    16    17   ar
     5    16    21    2
     6    17    18   ar
     7    17    23    1
     8    18    19   ar
     9    18    22    2
    10    19    20   ar
    11     6     7    1
    12     6    11    1
    13     7     8    1
    14     7     9    1
    15     8    13    1
    16     9    10    1
    17     9    12    1
    18    10    11    1
    19    10     5    1
    20    12    14    1
    21     5     4    1
    22     4     1    1
    23     1     2    2
    24     1     3    1
    25     1    24    1
    26    24    25    1
    27    25    26    2
    28    25    27    1
    29    25    28    1
    30    28    29    1
    31    29    30    1
    32    29    37    1
    33    30    31    1
    34    30    34    1
    35    31    32    1
    36    31    35    1
    37    32    33    1
    38    32    36    1
    39    33    41    1
    40    33    37    1
    41    41    42    1
    42    34    38    1
    43    35    39    1
    44    36    40    1
    45    42    43    1
@<TRIPOS>MOLECULE
GDU
 43 45 0 0 0
SMALL
GASTEIGER

@<TRIPOS>ATOM
      1 P          22.6964   71.9065   -3.0309 P.3     1  UNL1        0.2189
      2 O          22.1247   73.2686   -2.9460 O.2     1  UNL1       -0.5170
      3 O          24.0873   71.9578   -3.8407 O.3     1  UNL1       -0.4371
      4 O          22.9591   71.3409   -1.5483 O.3     1  UNL1       -0.3112
      5 C          21.6854   70.9816   -1.0108 C.3     1  UNL1        0.1811
      6 C          23.1884   71.8820    2.1289 C.3     1  UNL1        0.2383
      7 C          22.5935   73.2073    1.5881 C.3     1  UNL1        0.1895
      8 O          22.1911   74.0611    2.6615 O.3     1  UNL1       -0.3779
      9 C          21.3627   72.7080    0.7873 C.3     1  UNL1        0.1713
     10 C          21.6789   71.2287    0.4989 C.3     1  UNL1        0.1764
     11 O          22.9803   70.9521    1.0447 O.3     1  UNL1       -0.3308
     12 O          20.1741   72.8289    1.5713 O.3     1  UNL1       -0.3794
     13 H          21.8319   74.8643    2.2593 H       1  UNL1        0.2106
     14 H          20.0630   73.7688    1.7685 H       1  UNL1        0.2105
     15 N          24.6167   72.0329    2.4120 N.ar    1  UNL1       -0.2551
     16 C          25.4087   70.9466    2.4433 C.ar    1  UNL1        0.3323
     17 N          26.7258   71.0582    2.6978 N.ar    1  UNL1       -0.2743
     18 C          27.2723   72.2659    2.9363 C.ar    1  UNL1        0.2626
     19 C          26.4491   73.4183    2.9122 C.ar    1  UNL1        0.0795
     20 C          25.1322   73.2785    2.6502 C.ar    1  UNL1        0.0869
     21 O          24.9301   69.8505    2.2297 O.2     1  UNL1       -0.2464
     22 O          28.4635   72.3674    3.1714 O.2     1  UNL1       -0.2670
     23 H          27.2833   70.2640    2.7123 H       1  UNL1        0.1734
     24 O          21.6644   70.9394   -3.8005 O.3     1  UNL1       -0.2703
     25 P          20.9654   71.8230   -4.9497 P.3     1  UNL1        0.2208
     26 O          20.2984   72.9922   -4.3356 O.2     1  UNL1       -0.5170
     27 O          22.0843   72.3300   -5.9915 O.3     1  UNL1       -0.4371
     28 O          19.8759   70.9293   -5.7271 O.3     1  UNL1       -0.2858
     29 C          18.9587   71.8352   -6.3420 C.3     1  UNL1        0.2704
     30 C          17.5344   71.4962   -5.8995 C.3     1  UNL1        0.1967
     31 C          17.2184   70.0518   -6.2997 C.3     1  UNL1        0.1715
     32 C          17.4921   69.8876   -7.7990 C.3     1  UNL1        0.1694
     33 C          18.9214   70.3471   -8.0973 C.3     1  UNL1        0.1761
     34 O          17.4278   71.6358   -4.4816 O.3     1  UNL1       -0.3775
     35 O          15.8449   69.7673   -6.0260 O.3     1  UNL1       -0.3794
     36 O          16.5654   70.6795   -8.5434 O.3     1  UNL1       -0.3794
     37 O          19.0641   71.7261   -7.7596 O.3     1  UNL1       -0.3258
     38 H          17.6415   72.5559   -4.2751 H       1  UNL1        0.2106
     39 H          15.7163   69.8945   -5.0776 H       1  UNL1        0.2105
     40 H          15.6815   70.3596   -8.3204 H       1  UNL1        0.2105
     41 C          19.2167   70.1552   -9.5865 C.3     1  UNL1        0.1693
     42 O          18.7169   71.2755  -10.3186 O.3     1  UNL1       -0.3794
     43 H          18.9233   71.1160  -11.2499 H       1  UNL1        0.2105
@<TRIPOS>BOND
     1    15    16   ar
     2    15    20   ar
     3    15     6    1
     4    16    17   ar
     5    16    21    2
     6    17    18   ar
     7    17    23    1
     8    18    19   ar
     9    18    22    2
    10    19    20   ar
    11     6     7    1
    12     6    11    1
    13     7     8    1
    14     7     9    1
    15     8    13    1
    16     9    10    1
    17     9    12    1
    18    10    11    1
    19    10     5    1
    20    12    14    1
    21     5     4    1
    22     4     1    1
    23     1     2    2
    24     1     3    1
    25     1    24    1
    26    24    25    1
    27    25    26    2
    28    25    27    1
    29    25    28    1
    30    28    29    1
    31    29    30    1
    32    29    37    1
    33    30    31    1
    34    30    34    1
    35    31    32    1
    36    31    35    1
    37    32    33    1
    38    32    36    1
    39    33    41    1
    40    33    37    1
    41    41    42    1
    42    34    38    1
    43    35    39    1
    44    36    40    1
    45    42    43    1
@<TRIPOS>MOLECULE
GDU
 43 45 0 0 0
SMALL
GASTEIGER

@<TRIPOS>ATOM
      1 P          16.1839   69.6147   -2.5577 P.3     1  UNL1        0.2189
      2 O          17.1173   68.6810   -1.8895 O.2     1  UNL1       -0.5170
      3 O          15.8744   69.0892   -4.0480 O.3     1  UNL1       -0.4371
      4 O          14.8127   69.6938   -1.7209 O.3     1  UNL1       -0.3112
      5 C          14.9299   68.7612   -0.6453 C.3     1  UNL1        0.1811
      6 C          11.5415   67.7732    0.0401 C.3     1  UNL1        0.2383
      7 C          12.4097   66.7496    0.8156 C.3     1  UNL1        0.1895
      8 O          11.7364   66.2984    1.9931 O.3     1  UNL1       -0.3779
      9 C          13.6582   67.5938    1.1816 C.3     1  UNL1        0.1713
     10 C          13.6352   68.7542    0.1694 C.3     1  UNL1        0.1764
     11 O          12.5109   68.5432   -0.7022 O.3     1  UNL1       -0.3308
     12 O          13.5540   68.0858    2.5192 O.3     1  UNL1       -0.3794
     13 H          12.3269   65.6670    2.4273 H       1  UNL1        0.2106
     14 H          13.5134   67.3134    3.0993 H       1  UNL1        0.2105
     15 N          10.6213   67.0882   -0.8692 N.ar    1  UNL1       -0.2551
     16 C           9.5253   67.7271   -1.3149 C.ar    1  UNL1        0.3323
     17 N           8.6650   67.1212   -2.1544 N.ar    1  UNL1       -0.2743
     18 C           8.8849   65.8544   -2.5556 C.ar    1  UNL1        0.2626
     19 C          10.0323   65.1670   -2.0897 C.ar    1  UNL1        0.0795
     20 C          10.8809   65.7996   -1.2518 C.ar    1  UNL1        0.0869
     21 O           9.3138   68.8703   -0.9620 O.2     1  UNL1       -0.2464
     22 O           8.1043   65.3035   -3.3117 O.2     1  UNL1       -0.2670
     23 H           7.8813   67.5989   -2.4695 H       1  UNL1        0.1734
     24 O          16.8526   71.0774   -2.6341 O.3     1  UNL1       -0.2703
     25 P          18.2174   70.9234   -3.4728 P.3     1  UNL1        0.2208
     26 O          18.9577   72.2042   -3.4496 O.2     1  UNL1       -0.5170
     27 O          19.1249   69.7677   -2.8132 O.3     1  UNL1       -0.4371
     28 O          17.8719   70.5296   -4.9945 O.3     1  UNL1       -0.2858
     29 C          17.8188   71.7487   -5.7368 C.3     1  UNL1        0.2704
     30 C          16.5824   71.7432   -6.6370 C.3     1  UNL1        0.1967
     31 C          16.6577   70.5386   -7.5802 C.3     1  UNL1        0.1715
     32 C          18.0011   70.5766   -8.3174 C.3     1  UNL1        0.1694
     33 C          19.1309   70.6686   -7.2887 C.3     1  UNL1        0.1761
     34 O          15.4052   71.6505   -5.8328 O.3     1  UNL1       -0.3775
     35 O          15.5870   70.6007   -8.5248 O.3     1  UNL1       -0.3794
     36 O          18.0405   71.7139   -9.1805 O.3     1  UNL1       -0.3794
     37 O          18.9960   71.8706   -6.5318 O.3     1  UNL1       -0.3258
     38 H          15.4029   72.4230   -5.2514 H       1  UNL1        0.2106
     39 H          14.7654   70.5864   -8.0179 H       1  UNL1        0.2105
     40 H          17.3104   71.6163   -9.8055 H       1  UNL1        0.2105
     41 C          20.4789   70.6726   -8.0132 C.3     1  UNL1        0.1693
     42 O          20.8125   72.0098   -8.3895 O.3     1  UNL1       -0.3794
     43 H          21.6666   71.9686   -8.8412 H       1  UNL1        0.2105
@<TRIPOS>BOND
     1    15    16   ar
     2    15    20   ar
     3    15     6    1
     4    16    17   ar
     5    16    21    2
     6    17    18   ar
     7    17    23    1
     8    18    19   ar
     9    18    22    2
    10    19    20   ar
    11     6     7    1
    12     6    11    1
    13     7     8    1
    14     7     9    1
    15     8    13    1
    16     9    10    1
    17     9    12    1
    18    10    11    1
    19    10     5    1
    20    12    14    1
    21     5     4    1
    22     4     1    1
    23     1     2    2
    24     1     3    1
    25     1    24    1
    26    24    25    1
    27    25    26    2
    28    25    27    1
    29    25    28    1
    30    28    29    1
    31    29    30    1
    32    29    37    1
    33    30    31    1
    34    30    34    1
    35    31    32    1
    36    31    35    1
    37    32    33    1
    38    32    36    1
    39    33    41    1
    40    33    37    1
    41    41    42    1
    42    34    38    1
    43    35    39    1
    44    36    40    1
    45    42    43    1
@<TRIPOS>MOLECULE
GDU
 43 45 0 0 0
SMALL
GASTEIGER

@<TRIPOS>ATOM
      1 P          22.5335   72.6222   -1.2703 P.3     1  UNL1        0.2189
      2 O          23.2097   73.7340   -0.5660 O.2     1  UNL1       -0.5170
      3 O          20.9667   72.6256   -0.8986 O.3     1  UNL1       -0.4371
      4 O          22.7086   72.8068   -2.8584 O.3     1  UNL1       -0.3112
      5 C          21.4430   72.5117   -3.4513 C.3     1  UNL1        0.1811
      6 C          20.3951   71.0922   -6.5841 C.3     1  UNL1        0.2383
      7 C          20.9557   72.4883   -6.9577 C.3     1  UNL1        0.1895
      8 O          21.5227   72.4756   -8.2698 O.3     1  UNL1       -0.3779
      9 C          22.0541   72.6956   -5.8825 C.3     1  UNL1        0.1713
     10 C          21.6557   71.7314   -4.7498 C.3     1  UNL1        0.1764
     11 O          20.4291   71.0906   -5.1410 O.3     1  UNL1       -0.3308
     12 O          23.3386   72.3565   -6.4086 O.3     1  UNL1       -0.3794
     13 H          21.8514   73.3694   -8.4401 H       1  UNL1        0.2106
     14 H          23.5046   72.9548   -7.1497 H       1  UNL1        0.2105
     15 N          19.0220   70.9391   -7.0678 N.ar    1  UNL1       -0.2551
     16 C          18.7922   70.3123   -8.2351 C.ar    1  UNL1        0.3323
     17 N          17.5390   70.1552   -8.7006 N.ar    1  UNL1       -0.2743
     18 C          16.4901   70.6349   -8.0050 C.ar    1  UNL1        0.2626
     19 C          16.7174   71.3024   -6.7766 C.ar    1  UNL1        0.0795
     20 C          17.9840   71.4425   -6.3307 C.ar    1  UNL1        0.0869
     21 O          19.7282   69.8738   -8.8735 O.2     1  UNL1       -0.2464
     22 O          15.3557   70.4974   -8.4279 O.2     1  UNL1       -0.2670
     23 H          17.3912   69.6965   -9.5429 H       1  UNL1        0.1734
     24 O          23.1883   71.2232   -0.8159 O.3     1  UNL1       -0.2703
     25 P          22.8166   71.0162    0.7362 P.3     1  UNL1        0.2208
     26 O          21.5109   70.3286    0.8430 O.2     1  UNL1       -0.5170
     27 O          23.9531   70.1220    1.4453 O.3     1  UNL1       -0.4371
     28 O          22.7309   72.4489    1.4643 O.3     1  UNL1       -0.2858
     29 C          22.8795   72.2122    2.8648 C.3     1  UNL1        0.2704
     30 C          21.6944   72.8244    3.6133 C.3     1  UNL1        0.1967
     31 C          21.6428   74.3272    3.3212 C.3     1  UNL1        0.1715
     32 C          23.0092   74.9379    3.6523 C.3     1  UNL1        0.1694
     33 C          24.0952   74.1660    2.8987 C.3     1  UNL1        0.1761
     34 O          20.4820   72.2083    3.1755 O.3     1  UNL1       -0.3775
     35 O          20.6331   74.9385    4.1270 O.3     1  UNL1       -0.3794
     36 O          23.2433   74.8512    5.0586 O.3     1  UNL1       -0.3794
     37 O          24.0955   72.8023    3.3183 O.3     1  UNL1       -0.3258
     38 H          20.5617   71.2649    3.3720 H       1  UNL1        0.2106
     39 H          19.7962   74.5168    3.8946 H       1  UNL1        0.2105
     40 H          22.5345   75.3449    5.4912 H       1  UNL1        0.2105
     41 C          25.4609   74.7896    3.1954 C.3     1  UNL1        0.1693
     42 O          26.0797   74.0875    4.2748 O.3     1  UNL1       -0.3794
     43 H          26.9358   74.5100    4.4293 H       1  UNL1        0.2105
@<TRIPOS>BOND
     1    15    16   ar
     2    15    20   ar
     3    15     6    1
     4    16    17   ar
     5    16    21    2
     6    17    18   ar
     7    17    23    1
     8    18    19   ar
     9    18    22    2
    10    19    20   ar
    11     6     7    1
    12     6    11    1
    13     7     8    1
    14     7     9    1
    15     8    13    1
    16     9    10    1
    17     9    12    1
    18    10    11    1
    19    10     5    1
    20    12    14    1
    21     5     4    1
    22     4     1    1
    23     1     2    2
    24     1     3    1
    25     1    24    1
    26    24    25    1
    27    25    26    2
    28    25    27    1
    29    25    28    1
    30    28    29    1
    31    29    30    1
    32    29    37    1
    33    30    31    1
    34    30    34    1
    35    31    32    1
    36    31    35    1
    37    32    33    1
    38    32    36    1
    39    33    41    1
    40    33    37    1
    41    41    42    1
    42    34    38    1
    43    35    39    1
    44    36    40    1
    45    42    43    1
@<TRIPOS>MOLECULE
GDU
 43 45 0 0 0
SMALL
GASTEIGER

@<TRIPOS>ATOM
      1 P          22.4550   71.1954   -2.7528 P.3     1  UNL1        0.2189
      2 O          22.1573   72.5609   -3.2389 O.2     1  UNL1       -0.5170
      3 O          24.0004   70.8478   -3.0422 O.3     1  UNL1       -0.4371
      4 O          22.1740   71.1152   -1.1712 O.3     1  UNL1       -0.3112
      5 C          22.4587   72.4079   -0.6343 C.3     1  UNL1        0.1811
      6 C          24.3383   72.6195    2.4235 C.3     1  UNL1        0.2383
      7 C          23.9646   71.1201    2.2994 C.3     1  UNL1        0.1895
      8 O          24.9666   70.2938    2.8965 O.3     1  UNL1       -0.3779
      9 C          23.9275   70.9208    0.7618 C.3     1  UNL1        0.1713
     10 C          23.7364   72.3436    0.2044 C.3     1  UNL1        0.1764
     11 O          23.6288   73.2353    1.3276 O.3     1  UNL1       -0.3308
     12 O          25.1570   70.3568    0.3013 O.3     1  UNL1       -0.3794
     13 H          24.6749   69.3780    2.7860 H       1  UNL1        0.2106
     14 H          25.2477   69.4949    0.7298 H       1  UNL1        0.2105
     15 N          23.8817   73.1628    3.7038 N.ar    1  UNL1       -0.2551
     16 C          24.6139   74.1015    4.3290 C.ar    1  UNL1        0.3323
     17 N          24.2147   74.6200    5.5053 N.ar    1  UNL1       -0.2743
     18 C          23.0738   74.1969    6.0827 C.ar    1  UNL1        0.2626
     19 C          22.2952   73.2044    5.4385 C.ar    1  UNL1        0.0795
     20 C          22.7165   72.7044    4.2573 C.ar    1  UNL1        0.0869
     21 O          25.6452   74.4934    3.8201 O.2     1  UNL1       -0.2464
     22 O          22.7141   74.6621    7.1498 O.2     1  UNL1       -0.2670
     23 H          24.7534   75.2999    5.9405 H       1  UNL1        0.1734
     24 O          21.5155   70.1369   -3.5204 O.3     1  UNL1       -0.2703
     25 P          19.9967   70.6306   -3.3212 P.3     1  UNL1        0.2208
     26 O          19.5014   70.1815   -2.0013 O.2     1  UNL1       -0.5170
     27 O          19.9413   72.2385   -3.3960 O.3     1  UNL1       -0.4371
     28 O          19.0724   70.0084   -4.4824 O.3     1  UNL1       -0.2858
     29 C          17.8696   70.7780   -4.5124 C.3     1  UNL1        0.2704
     30 C          16.6648   69.8451   -4.3799 C.3     1  UNL1        0.1967
     31 C          16.6885   68.8336   -5.5300 C.3     1  UNL1        0.1715
     32 C          16.7777   69.5998   -6.8547 C.3     1  UNL1        0.1694
     33 C          17.9761   70.5505   -6.8001 C.3     1  UNL1        0.1761
     34 O          16.7297   69.1539   -3.1312 O.3     1  UNL1       -0.3775
     35 O          15.4935   68.0503   -5.5052 O.3     1  UNL1       -0.3794
     36 O          15.5774   70.3473   -7.0560 O.3     1  UNL1       -0.3794
     37 O          17.7954   71.4927   -5.7438 O.3     1  UNL1       -0.3258
     38 H          16.7195   69.8281   -2.4383 H       1  UNL1        0.2106
     39 H          15.4735   67.5973   -4.6527 H       1  UNL1        0.2105
     40 H          14.8513   69.7104   -7.0778 H       1  UNL1        0.2105
     41 C          18.0946   71.2959   -8.1314 C.3     1  UNL1        0.1693
     42 O          17.3655   70.5910   -9.1376 O.3     1  UNL1       -0.3794
     43 H          17.4648   71.0926   -9.9584 H       1  UNL1        0.2105
@<TRIPOS>BOND
     1    15    16   ar
     2    15    20   ar
     3    15     6    1
     4    16    17   ar
     5    16    21    2
     6    17    18   ar
     7    17    23    1
     8    18    19   ar
     9    18    22    2
    10    19    20   ar
    11     6     7    1
    12     6    11    1
    13     7     8    1
    14     7     9    1
    15     8    13    1
    16     9    10    1
    17     9    12    1
    18    10    11    1
    19    10     5    1
    20    12    14    1
    21     5     4    1
    22     4     1    1
    23     1     2    2
    24     1     3    1
    25     1    24    1
    26    24    25    1
    27    25    26    2
    28    25    27    1
    29    25    28    1
    30    28    29    1
    31    29    30    1
    32    29    37    1
    33    30    31    1
    34    30    34    1
    35    31    32    1
    36    31    35    1
    37    32    33    1
    38    32    36    1
    39    33    41    1
    40    33    37    1
    41    41    42    1
    42    34    38    1
    43    35    39    1
    44    36    40    1
    45    42    43    1
@<TRIPOS>MOLECULE
GDU
 43 45 0 0 0
SMALL
GASTEIGER

@<TRIPOS>ATOM
      1 P          21.8457   72.3285   -6.2899 P.3     1  UNL1        0.2189
      2 O          23.2077   72.7910   -6.6372 O.2     1  UNL1       -0.5170
      3 O          20.7826   73.4905   -6.6255 O.3     1  UNL1       -0.4371
      4 O          21.4908   71.0133   -7.1450 O.3     1  UNL1       -0.3112
      5 C          20.5583   71.4127   -8.1507 C.3     1  UNL1        0.1811
      6 C          17.4487   70.1078   -6.9037 C.3     1  UNL1        0.2383
      7 C          17.0330   71.1333   -7.9893 C.3     1  UNL1        0.1895
      8 O          15.8084   70.7445   -8.6158 O.3     1  UNL1       -0.3779
      9 C          18.2166   71.0474   -8.9877 C.3     1  UNL1        0.1713
     10 C          19.3670   70.4531   -8.1541 C.3     1  UNL1        0.1764
     11 O          18.8796   70.2748   -6.8129 O.3     1  UNL1       -0.3308
     12 O          17.8866   70.1885  -10.0811 O.3     1  UNL1       -0.3794
     13 H          15.6064   71.4210   -9.2771 H       1  UNL1        0.2106
     14 H          17.1248   70.5829  -10.5269 H       1  UNL1        0.2105
     15 N          16.8106   70.4208   -5.6240 N.ar    1  UNL1       -0.2551
     16 C          16.4094   69.4227   -4.8171 C.ar    1  UNL1        0.3323
     17 N          15.8233   69.6833   -3.6337 N.ar    1  UNL1       -0.2743
     18 C          15.6194   70.9556   -3.2415 C.ar    1  UNL1        0.2626
     19 C          16.0316   72.0172   -4.0838 C.ar    1  UNL1        0.0795
     20 C          16.6208   71.7277   -5.2634 C.ar    1  UNL1        0.0869
     21 O          16.5871   68.2699   -5.1572 O.2     1  UNL1       -0.2464
     22 O          15.0847   71.1925   -2.1726 O.2     1  UNL1       -0.2670
     23 H          15.5440   68.9506   -3.0620 H       1  UNL1        0.1734
     24 O          21.7820   71.9822   -4.7188 O.3     1  UNL1       -0.2703
     25 P          22.8387   72.9487   -3.9846 P.3     1  UNL1        0.2208
     26 O          24.2145   72.5070   -4.3027 O.2     1  UNL1       -0.5170
     27 O          22.6290   74.4609   -4.4978 O.3     1  UNL1       -0.4371
     28 O          22.6086   72.8867   -2.3930 O.3     1  UNL1       -0.2858
     29 C          21.8550   71.7027   -2.1285 C.3     1  UNL1        0.2704
     30 C          20.5380   72.0788   -1.4479 C.3     1  UNL1        0.1967
     31 C          20.8449   72.8265   -0.1467 C.3     1  UNL1        0.1715
     32 C          21.7944   71.9700    0.6984 C.3     1  UNL1        0.1694
     33 C          23.0181   71.6035   -0.1451 C.3     1  UNL1        0.1761
     34 O          19.7737   72.9183   -2.3153 O.3     1  UNL1       -0.3775
     35 O          19.6317   73.0553    0.5731 O.3     1  UNL1       -0.3794
     36 O          21.1220   70.7809    1.1153 O.3     1  UNL1       -0.3794
     37 O          22.6097   70.8409   -1.2797 O.3     1  UNL1       -0.3258
     38 H          19.6104   72.4109   -3.1220 H       1  UNL1        0.2106
     39 H          19.0625   73.5855    0.0010 H       1  UNL1        0.2105
     40 H          20.3579   71.0596    1.6366 H       1  UNL1        0.2105
     41 C          23.9892   70.7766    0.7005 C.3     1  UNL1        0.1693
     42 O          23.6430   70.9017    2.0809 O.3     1  UNL1       -0.3794
     43 H          24.2768   70.3665    2.5781 H       1  UNL1        0.2105
@<TRIPOS>BOND
     1    15    16   ar
     2    15    20   ar
     3    15     6    1
     4    16    17   ar
     5    16    21    2
     6    17    18   ar
     7    17    23    1
     8    18    19   ar
     9    18    22    2
    10    19    20   ar
    11     6     7    1
    12     6    11    1
    13     7     8    1
    14     7     9    1
    15     8    13    1
    16     9    10    1
    17     9    12    1
    18    10    11    1
    19    10     5    1
    20    12    14    1
    21     5     4    1
    22     4     1    1
    23     1     2    2
    24     1     3    1
    25     1    24    1
    26    24    25    1
    27    25    26    2
    28    25    27    1
    29    25    28    1
    30    28    29    1
    31    29    30    1
    32    29    37    1
    33    30    31    1
    34    30    34    1
    35    31    32    1
    36    31    35    1
    37    32    33    1
    38    32    36    1
    39    33    41    1
    40    33    37    1
    41    41    42    1
    42    34    38    1
    43    35    39    1
    44    36    40    1
    45    42    43    1
@<TRIPOS>MOLECULE
GDU
 43 45 0 0 0
SMALL
GASTEIGER

@<TRIPOS>ATOM
      1 P          20.9058   71.3349   -3.1017 P.3     1  UNL1        0.2189
      2 O          20.4758   72.6265   -3.6818 O.2     1  UNL1       -0.5170
      3 O          22.5023   71.1855   -3.2492 O.3     1  UNL1       -0.4371
      4 O          20.5037   71.2848   -1.5453 O.3     1  UNL1       -0.3112
      5 C          21.6144   70.7172   -0.8490 C.3     1  UNL1        0.1811
      6 C          23.1591   72.0029    2.1323 C.3     1  UNL1        0.2383
      7 C          22.6750   73.2631    1.3703 C.3     1  UNL1        0.1895
      8 O          22.3329   74.3100    2.2815 O.3     1  UNL1       -0.3779
      9 C          21.4150   72.7350    0.6363 C.3     1  UNL1        0.1713
     10 C          21.6155   71.2086    0.5997 C.3     1  UNL1        0.1764
     11 O          22.8867   70.9264    1.2102 O.3     1  UNL1       -0.3308
     12 O          20.2335   73.0738    1.3652 O.3     1  UNL1       -0.3794
     13 H          22.0415   75.0613    1.7464 H       1  UNL1        0.2106
     14 H          20.1956   74.0390    1.4041 H       1  UNL1        0.2105
     15 N          24.5925   72.0883    2.4166 N.ar    1  UNL1       -0.2551
     16 C          25.3453   70.9744    2.3889 C.ar    1  UNL1        0.3323
     17 N          26.6661   71.0259    2.6431 N.ar    1  UNL1       -0.2743
     18 C          27.2560   72.1997    2.9405 C.ar    1  UNL1        0.2626
     19 C          26.4745   73.3803    2.9790 C.ar    1  UNL1        0.0795
     20 C          25.1528   73.3010    2.7159 C.ar    1  UNL1        0.0869
     21 O          24.8273   69.9084    2.1216 O.2     1  UNL1       -0.2464
     22 O          28.4507   72.2466    3.1754 O.2     1  UNL1       -0.2670
     23 H          27.1950   70.2128    2.6145 H       1  UNL1        0.1734
     24 O          20.1808   70.1286   -3.8838 O.3     1  UNL1       -0.2703
     25 P          18.5956   70.3718   -3.7501 P.3     1  UNL1        0.2208
     26 O          18.0241   69.3894   -2.8028 O.2     1  UNL1       -0.5170
     27 O          18.3259   71.8628   -3.2038 O.3     1  UNL1       -0.4371
     28 O          17.9011   70.1959   -5.1912 O.3     1  UNL1       -0.2858
     29 C          17.9045   71.4815   -5.8132 C.3     1  UNL1        0.2704
     30 C          16.6555   71.6294   -6.6835 C.3     1  UNL1        0.1967
     31 C          16.6482   70.5184   -7.7380 C.3     1  UNL1        0.1715
     32 C          17.9797   70.5540   -8.4966 C.3     1  UNL1        0.1694
     33 C          19.1291   70.4857   -7.4881 C.3     1  UNL1        0.1761
     34 O          15.4879   71.5239   -5.8669 O.3     1  UNL1       -0.3775
     35 O          15.5677   70.7287   -8.6496 O.3     1  UNL1       -0.3794
     36 O          18.0689   71.7650   -9.2487 O.3     1  UNL1       -0.3794
     37 O          19.0738   71.6151   -6.6179 O.3     1  UNL1       -0.3258
     38 H          15.5382   72.2362   -5.2149 H       1  UNL1        0.2106
     39 H          14.7548   70.7104   -8.1290 H       1  UNL1        0.2105
     40 H          17.3246   71.7675   -9.8645 H       1  UNL1        0.2105
     41 C          20.4635   70.4860   -8.2373 C.3     1  UNL1        0.1693
     42 O          20.8657   71.8331   -8.4915 O.3     1  UNL1       -0.3794
     43 H          21.7089   71.7892   -8.9631 H       1  UNL1        0.2105
@<TRIPOS>BOND
     1    15    16   ar
     2    15    20   ar
     3    15     6    1
     4    16    17   ar
     5    16    21    2
     6    17    18   ar
     7    17    23    1
     8    18    19   ar
     9    18    22    2
    10    19    20   ar
    11     6     7    1
    12     6    11    1
    13     7     8    1
    14     7     9    1
    15     8    13    1
    16     9    10    1
    17     9    12    1
    18    10    11    1
    19    10     5    1
    20    12    14    1
    21     5     4    1
    22     4     1    1
    23     1     2    2
    24     1     3    1
    25     1    24    1
    26    24    25    1
    27    25    26    2
    28    25    27    1
    29    25    28    1
    30    28    29    1
    31    29    30    1
    32    29    37    1
    33    30    31    1
    34    30    34    1
    35    31    32    1
    36    31    35    1
    37    32    33    1
    38    32    36    1
    39    33    41    1
    40    33    37    1
    41    41    42    1
    42    34    38    1
    43    35    39    1
    44    36    40    1
    45    42    43    1
@<TRIPOS>MOLECULE
GDU
 43 45 0 0 0
SMALL
GASTEIGER

@<TRIPOS>ATOM
      1 P          22.0558   72.1832   -1.5726 P.3     1  UNL1        0.2189
      2 O          22.8939   70.9855   -1.3429 O.2     1  UNL1       -0.5170
      3 O          22.7943   73.4792   -0.9662 O.3     1  UNL1       -0.4371
      4 O          21.8287   72.3849   -3.1521 O.3     1  UNL1       -0.3112
      5 C          21.0942   71.2497   -3.6128 C.3     1  UNL1        0.1811
      6 C          19.8458   71.7868   -6.9415 C.3     1  UNL1        0.2383
      7 C          20.7059   73.0410   -6.6415 C.3     1  UNL1        0.1895
      8 O          21.2910   73.5566   -7.8394 O.3     1  UNL1       -0.3779
      9 C          21.7944   72.4698   -5.6958 C.3     1  UNL1        0.1713
     10 C          21.1664   71.1785   -5.1392 C.3     1  UNL1        0.1764
     11 O          19.8406   71.0737   -5.6865 O.3     1  UNL1       -0.3308
     12 O          22.9880   72.1793   -6.4257 O.3     1  UNL1       -0.3794
     13 H          21.8103   74.3320   -7.5848 H       1  UNL1        0.2106
     14 H          23.2994   73.0156   -6.7976 H       1  UNL1        0.2105
     15 N          18.4854   72.1707   -7.3222 N.ar    1  UNL1       -0.2551
     16 C          17.8126   71.4347   -8.2244 C.ar    1  UNL1        0.3323
     17 N          16.5594   71.7639   -8.5891 N.ar    1  UNL1       -0.2743
     18 C          15.9599   72.8478   -8.0601 C.ar    1  UNL1        0.2626
     19 C          16.6586   73.6357   -7.1129 C.ar    1  UNL1        0.0795
     20 C          17.9128   73.2806   -6.7617 C.ar    1  UNL1        0.0869
     21 O          18.3402   70.4539   -8.7098 O.2     1  UNL1       -0.2464
     22 O          14.8273   73.1493   -8.3931 O.2     1  UNL1       -0.2670
     23 H          16.0871   71.2189   -9.2384 H       1  UNL1        0.1734
     24 O          20.6327   71.9887   -0.8451 O.3     1  UNL1       -0.2703
     25 P          20.1869   73.4349   -0.2978 P.3     1  UNL1        0.2208
     26 O          20.4838   74.4621   -1.3204 O.2     1  UNL1       -0.5170
     27 O          18.6062   73.4276    0.0115 O.3     1  UNL1       -0.4371
     28 O          20.9950   73.7714    1.0527 O.3     1  UNL1       -0.2858
     29 C          20.5216   72.8708    2.0549 C.3     1  UNL1        0.2704
     30 C          20.3209   73.6296    3.3676 C.3     1  UNL1        0.1967
     31 C          21.6532   74.2567    3.7897 C.3     1  UNL1        0.1715
     32 C          22.7215   73.1581    3.8281 C.3     1  UNL1        0.1694
     33 C          22.7414   72.4358    2.4787 C.3     1  UNL1        0.1761
     34 O          19.3444   74.6560    3.1826 O.3     1  UNL1       -0.3775
     35 O          21.5182   74.8440    5.0856 O.3     1  UNL1       -0.3794
     36 O          22.4142   72.2289    4.8684 O.3     1  UNL1       -0.3794
     37 O          21.4737   71.8259    2.2404 O.3     1  UNL1       -0.3258
     38 H          18.5266   74.2174    2.9113 H       1  UNL1        0.2106
     39 H          20.8303   75.5181    5.0171 H       1  UNL1        0.2105
     40 H          22.4068   72.7275    5.6958 H       1  UNL1        0.2105
     41 C          23.8287   71.3590    2.4946 C.3     1  UNL1        0.1693
     42 O          23.5904   70.4271    1.4383 O.3     1  UNL1       -0.3794
     43 H          24.2961   69.7673    1.4826 H       1  UNL1        0.2105
@<TRIPOS>BOND
     1    15    16   ar
     2    15    20   ar
     3    15     6    1
     4    16    17   ar
     5    16    21    2
     6    17    18   ar
     7    17    23    1
     8    18    19   ar
     9    18    22    2
    10    19    20   ar
    11     6     7    1
    12     6    11    1
    13     7     8    1
    14     7     9    1
    15     8    13    1
    16     9    10    1
    17     9    12    1
    18    10    11    1
    19    10     5    1
    20    12    14    1
    21     5     4    1
    22     4     1    1
    23     1     2    2
    24     1     3    1
    25     1    24    1
    26    24    25    1
    27    25    26    2
    28    25    27    1
    29    25    28    1
    30    28    29    1
    31    29    30    1
    32    29    37    1
    33    30    31    1
    34    30    34    1
    35    31    32    1
    36    31    35    1
    37    32    33    1
    38    32    36    1
    39    33    41    1
    40    33    37    1
    41    41    42    1
    42    34    38    1
    43    35    39    1
    44    36    40    1
    45    42    43    1
