@<TRIPOS>MOLECULE
GDU
 43 45 0 0 0
SMALL
GASTEIGER

@<TRIPOS>ATOM
      1 P          22.1412   70.8450   -2.5643 P.3     1  UNL1        0.2189
      2 O          21.5429   69.6113   -2.0080 O.2     1  UNL1       -0.5170
      3 O          23.5420   70.4889   -3.2743 O.3     1  UNL1       -0.4371
      4 O          21.1392   71.4873   -3.6460 O.3     1  UNL1       -0.3112
      5 C          20.1283   72.1810   -2.9129 C.3     1  UNL1        0.1811
      6 C          18.0040   71.2636   -5.6649 C.3     1  UNL1        0.2383
      7 C          18.0594   69.9946   -4.7762 C.3     1  UNL1        0.1895
      8 O          16.8428   69.2506   -4.8733 O.3     1  UNL1       -0.3779
      9 C          18.2268   70.5985   -3.3576 C.3     1  UNL1        0.1713
     10 C          18.7800   72.0124   -3.6156 C.3     1  UNL1        0.1764
     11 O          18.9483   72.1564   -5.0365 O.3     1  UNL1       -0.3308
     12 O          16.9652   70.6619   -2.6896 O.3     1  UNL1       -0.3794
     13 H          16.9421   68.4777   -4.3000 H       1  UNL1        0.2106
     14 H          16.6441   69.7533   -2.6107 H       1  UNL1        0.2105
     15 N          18.4185   70.9553   -7.0345 N.ar    1  UNL1       -0.2551
     16 C          17.4899   70.6660   -7.9631 C.ar    1  UNL1        0.3323
     17 N          17.8442   70.3824   -9.2304 N.ar    1  UNL1       -0.2743
     18 C          19.1428   70.3743   -9.5878 C.ar    1  UNL1        0.2626
     19 C          20.1323   70.6715   -8.6189 C.ar    1  UNL1        0.0795
     20 C          19.7492   70.9565   -7.3562 C.ar    1  UNL1        0.0869
     21 O          16.3146   70.6699   -7.6557 O.2     1  UNL1       -0.2464
     22 O          19.4647   70.1131  -10.7336 O.2     1  UNL1       -0.2670
     23 H          17.1604   70.1802   -9.8887 H       1  UNL1        0.1734
     24 O          22.3969   71.8997   -1.3749 O.3     1  UNL1       -0.2703
     25 P          22.3641   71.0674    0.0020 P.3     1  UNL1        0.2208
     26 O          21.0496   70.4036    0.1458 O.2     1  UNL1       -0.5170
     27 O          23.5278   69.9539   -0.0164 O.3     1  UNL1       -0.4371
     28 O          22.5997   72.0675    1.2407 O.3     1  UNL1       -0.2858
     29 C          21.3152   72.5555    1.6301 C.3     1  UNL1        0.2704
     30 C          21.1637   74.0085    1.1769 C.3     1  UNL1        0.1967
     31 C          22.2765   74.8476    1.8124 C.3     1  UNL1        0.1715
     32 C          22.2477   74.6312    3.3296 C.3     1  UNL1        0.1694
     33 C          22.3191   73.1300    3.6197 C.3     1  UNL1        0.1761
     34 O          21.2629   74.0786   -0.2467 O.3     1  UNL1       -0.3775
     35 O          22.0633   76.2297    1.5180 O.3     1  UNL1       -0.3794
     36 O          21.0385   75.1695    3.8662 O.3     1  UNL1       -0.3794
     37 O          21.1878   72.4749    3.0478 O.3     1  UNL1       -0.3258
     38 H          20.5497   73.5317   -0.6033 H       1  UNL1        0.2106
     39 H          22.0774   76.3165    0.5564 H       1  UNL1        0.2105
     40 H          21.0340   76.1123    3.6553 H       1  UNL1        0.2105
     41 C          22.3255   72.9045    5.1334 C.3     1  UNL1        0.1693
     42 O          20.9971   73.0431    5.6404 O.3     1  UNL1       -0.3794
     43 H          21.0447   72.8932    6.5947 H       1  UNL1        0.2105
@<TRIPOS>BOND
     1    15    16   ar
     2    15    20   ar
     3    15     6    1
     4    16    17   ar
     5    16    21    2
     6    17    18   ar
     7    17    23    1
     8    18    19   ar
     9    18    22    2
    10    19    20   ar
    11     6     7    1
    12     6    11    1
    13     7     8    1
    14     7     9    1
    15     8    13    1
    16     9    10    1
    17     9    12    1
    18    10    11    1
    19    10     5    1
    20    12    14    1
    21     5     4    1
    22     4     1    1
    23     1     2    2
    24     1     3    1
    25     1    24    1
    26    24    25    1
    27    25    26    2
    28    25    27    1
    29    25    28    1
    30    28    29    1
    31    29    30    1
    32    29    37    1
    33    30    31    1
    34    30    34    1
    35    31    32    1
    36    31    35    1
    37    32    33    1
    38    32    36    1
    39    33    41    1
    40    33    37    1
    41    41    42    1
    42    34    38    1
    43    35    39    1
    44    36    40    1
    45    42    43    1
@<TRIPOS>MOLECULE
GDU
 43 45 0 0 0
SMALL
GASTEIGER

@<TRIPOS>ATOM
      1 P          21.9909   70.4082   -0.3908 P.3     1  UNL1        0.2189
      2 O          22.6181   69.1853    0.1574 O.2     1  UNL1       -0.5170
      3 O          23.0779   71.2307   -1.2481 O.3     1  UNL1       -0.4371
      4 O          20.7571   70.0004   -1.3385 O.3     1  UNL1       -0.3112
      5 C          20.9151   70.7261   -2.5587 C.3     1  UNL1        0.1811
      6 C          18.3864   71.0655   -5.0921 C.3     1  UNL1        0.2383
      7 C          18.0617   69.7190   -4.3961 C.3     1  UNL1        0.1895
      8 O          16.6569   69.4562   -4.4242 O.3     1  UNL1       -0.3779
      9 C          18.5472   69.9774   -2.9460 C.3     1  UNL1        0.1713
     10 C          19.5417   71.1447   -3.0868 C.3     1  UNL1        0.1764
     11 O          19.6334   71.4661   -4.4855 O.3     1  UNL1       -0.3308
     12 O          17.4486   70.3454   -2.1095 O.3     1  UNL1       -0.3794
     13 H          16.5228   68.6085   -3.9778 H       1  UNL1        0.2106
     14 H          16.8345   69.5988   -2.1090 H       1  UNL1        0.2105
     15 N          18.5516   70.8764   -6.5343 N.ar    1  UNL1       -0.2551
     16 C          17.4681   70.8308   -7.3293 C.ar    1  UNL1        0.3323
     17 N          17.5926   70.6615   -8.6588 N.ar    1  UNL1       -0.2743
     18 C          18.8113   70.5245   -9.2157 C.ar    1  UNL1        0.2626
     19 C          19.9613   70.5648   -8.3899 C.ar    1  UNL1        0.0795
     20 C          19.8082   70.7400   -7.0601 C.ar    1  UNL1        0.0869
     21 O          16.3622   70.9533   -6.8414 O.2     1  UNL1       -0.2464
     22 O          18.9247   70.3665  -10.4185 O.2     1  UNL1       -0.2670
     23 H          16.7999   70.6352   -9.2181 H       1  UNL1        0.1734
     24 O          21.4585   71.3261    0.8202 O.3     1  UNL1       -0.2703
     25 P          21.9164   72.8350    0.4983 P.3     1  UNL1        0.2208
     26 O          23.1978   72.8143   -0.2410 O.2     1  UNL1       -0.5170
     27 O          20.7910   73.5570   -0.3998 O.3     1  UNL1       -0.4371
     28 O          22.1034   73.6458    1.8758 O.3     1  UNL1       -0.2858
     29 C          22.5848   72.7129    2.8443 C.3     1  UNL1        0.2704
     30 C          21.4887   72.4377    3.8749 C.3     1  UNL1        0.1967
     31 C          21.0919   73.7567    4.5450 C.3     1  UNL1        0.1715
     32 C          22.3556   74.4243    5.0992 C.3     1  UNL1        0.1694
     33 C          23.3859   74.5507    3.9743 C.3     1  UNL1        0.1761
     34 O          20.3513   71.8689    3.2237 O.3     1  UNL1       -0.3775
     35 O          20.1762   73.4972    5.6111 O.3     1  UNL1       -0.3794
     36 O          22.8915   73.6287    6.1574 O.3     1  UNL1       -0.3794
     37 O          23.7338   73.2536    3.4923 O.3     1  UNL1       -0.3258
     38 H          20.6485   71.0466    2.8109 H       1  UNL1        0.2106
     39 H          19.4051   73.0680    5.2194 H       1  UNL1        0.2105
     40 H          22.2085   73.5717    6.8382 H       1  UNL1        0.2105
     41 C          24.6392   75.2475    4.5089 C.3     1  UNL1        0.1693
     42 O          25.5267   74.2728    5.0596 O.3     1  UNL1       -0.3794
     43 H          26.3019   74.7516    5.3838 H       1  UNL1        0.2105
@<TRIPOS>BOND
     1    15    16   ar
     2    15    20   ar
     3    15     6    1
     4    16    17   ar
     5    16    21    2
     6    17    18   ar
     7    17    23    1
     8    18    19   ar
     9    18    22    2
    10    19    20   ar
    11     6     7    1
    12     6    11    1
    13     7     8    1
    14     7     9    1
    15     8    13    1
    16     9    10    1
    17     9    12    1
    18    10    11    1
    19    10     5    1
    20    12    14    1
    21     5     4    1
    22     4     1    1
    23     1     2    2
    24     1     3    1
    25     1    24    1
    26    24    25    1
    27    25    26    2
    28    25    27    1
    29    25    28    1
    30    28    29    1
    31    29    30    1
    32    29    37    1
    33    30    31    1
    34    30    34    1
    35    31    32    1
    36    31    35    1
    37    32    33    1
    38    32    36    1
    39    33    41    1
    40    33    37    1
    41    41    42    1
    42    34    38    1
    43    35    39    1
    44    36    40    1
    45    42    43    1
@<TRIPOS>MOLECULE
GDU
 43 45 0 0 0
SMALL
GASTEIGER

@<TRIPOS>ATOM
      1 P          22.2596   71.5811   -1.8373 P.3     1  UNL1        0.2189
      2 O          22.5524   70.5155   -2.8213 O.2     1  UNL1       -0.5170
      3 O          22.5907   73.0169   -2.4867 O.3     1  UNL1       -0.4371
      4 O          20.7051   71.5225   -1.4288 O.3     1  UNL1       -0.3112
      5 C          20.0029   72.3559   -2.3524 C.3     1  UNL1        0.1811
      6 C          18.0874   70.6947   -4.9016 C.3     1  UNL1        0.2383
      7 C          18.8732   69.5565   -4.2015 C.3     1  UNL1        0.1895
      8 O          18.1366   68.3320   -4.2365 O.3     1  UNL1       -0.3779
      9 C          18.9923   70.0892   -2.7498 C.3     1  UNL1        0.1713
     10 C          18.7815   71.6082   -2.8901 C.3     1  UNL1        0.1764
     11 O          18.6120   71.8921   -4.2896 O.3     1  UNL1       -0.3308
     12 O          17.9815   69.5114   -1.9212 O.3     1  UNL1       -0.3794
     13 H          18.6780   67.6680   -3.7871 H       1  UNL1        0.2106
     14 H          18.1317   68.5564   -1.9210 H       1  UNL1        0.2105
     15 N          18.3486   70.6946   -6.3419 N.ar    1  UNL1       -0.2551
     16 C          17.3353   70.4960   -7.2034 C.ar    1  UNL1        0.3323
     17 N          17.5479   70.4947   -8.5326 N.ar    1  UNL1       -0.2743
     18 C          18.7881   70.6835   -9.0230 C.ar    1  UNL1        0.2626
     19 C          19.8661   70.8882   -8.1273 C.ar    1  UNL1        0.0795
     20 C          19.6243   70.8890   -6.7991 C.ar    1  UNL1        0.0869
     21 O          16.2111   70.3248   -6.7759 O.2     1  UNL1       -0.2464
     22 O          18.9823   70.6777  -10.2258 O.2     1  UNL1       -0.2670
     23 H          16.8042   70.3541   -9.1399 H       1  UNL1        0.1734
     24 O          23.1688   71.3642   -0.5263 O.3     1  UNL1       -0.2703
     25 P          22.2512   70.6075    0.5579 P.3     1  UNL1        0.2208
     26 O          21.4023   69.6075   -0.1265 O.2     1  UNL1       -0.5170
     27 O          23.1931   69.8651    1.6331 O.3     1  UNL1       -0.4371
     28 O          21.3175   71.6786    1.3134 O.3     1  UNL1       -0.2858
     29 C          22.1890   72.6314    1.9237 C.3     1  UNL1        0.2704
     30 C          21.8181   72.7889    3.3991 C.3     1  UNL1        0.1967
     31 C          20.3599   73.2470    3.5005 C.3     1  UNL1        0.1715
     32 C          20.1812   74.5063    2.6450 C.3     1  UNL1        0.1694
     33 C          20.6749   74.2176    1.2251 C.3     1  UNL1        0.1761
     34 O          21.9755   71.5366    4.0685 O.3     1  UNL1       -0.3775
     35 O          20.0423   73.5401    4.8628 O.3     1  UNL1       -0.3794
     36 O          20.9367   75.5788    3.2098 O.3     1  UNL1       -0.3794
     37 O          22.0620   73.8847    1.2561 O.3     1  UNL1       -0.3258
     38 H          22.9040   71.2841    3.9732 H       1  UNL1        0.2106
     39 H          20.1798   72.7261    5.3635 H       1  UNL1        0.2105
     40 H          20.5962   75.7211    4.1027 H       1  UNL1        0.2105
     41 C          20.4692   75.4584    0.3533 C.3     1  UNL1        0.1693
     42 O          21.1789   75.2986   -0.8762 O.3     1  UNL1       -0.3794
     43 H          21.0230   76.0995   -1.3954 H       1  UNL1        0.2105
@<TRIPOS>BOND
     1    15    16   ar
     2    15    20   ar
     3    15     6    1
     4    16    17   ar
     5    16    21    2
     6    17    18   ar
     7    17    23    1
     8    18    19   ar
     9    18    22    2
    10    19    20   ar
    11     6     7    1
    12     6    11    1
    13     7     8    1
    14     7     9    1
    15     8    13    1
    16     9    10    1
    17     9    12    1
    18    10    11    1
    19    10     5    1
    20    12    14    1
    21     5     4    1
    22     4     1    1
    23     1     2    2
    24     1     3    1
    25     1    24    1
    26    24    25    1
    27    25    26    2
    28    25    27    1
    29    25    28    1
    30    28    29    1
    31    29    30    1
    32    29    37    1
    33    30    31    1
    34    30    34    1
    35    31    32    1
    36    31    35    1
    37    32    33    1
    38    32    36    1
    39    33    41    1
    40    33    37    1
    41    41    42    1
    42    34    38    1
    43    35    39    1
    44    36    40    1
    45    42    43    1
@<TRIPOS>MOLECULE
GDU
 43 45 0 0 0
SMALL
GASTEIGER

@<TRIPOS>ATOM
      1 P          20.4215   70.1042   -1.9962 P.3     1  UNL1        0.2189
      2 O          19.2122   69.2881   -2.2436 O.2     1  UNL1       -0.5170
      3 O          21.6840   69.4302   -2.7343 O.3     1  UNL1       -0.4371
      4 O          20.1940   71.5892   -2.5706 O.3     1  UNL1       -0.3112
      5 C          18.7826   71.8050   -2.6123 C.3     1  UNL1        0.1811
      6 C          18.2289   73.0114   -5.9538 C.3     1  UNL1        0.2383
      7 C          16.8166   72.6359   -5.4366 C.3     1  UNL1        0.1895
      8 O          15.8185   73.4715   -6.0272 O.3     1  UNL1       -0.3779
      9 C          16.9426   72.9149   -3.9162 C.3     1  UNL1        0.1713
     10 C          18.4595   72.8782   -3.6534 C.3     1  UNL1        0.1764
     11 O          19.1048   72.5605   -4.8988 O.3     1  UNL1       -0.3308
     12 O          16.4038   74.1995   -3.5977 O.3     1  UNL1       -0.3794
     13 H          14.9674   73.1874   -5.6657 H       1  UNL1        0.2106
     14 H          15.4678   74.1783   -3.8388 H       1  UNL1        0.2105
     15 N          18.5254   72.3114   -7.2047 N.ar    1  UNL1       -0.2551
     16 C          18.2251   72.8909   -8.3805 C.ar    1  UNL1        0.3323
     17 N          18.4906   72.2702   -9.5450 N.ar    1  UNL1       -0.2743
     18 C          19.0555   71.0475   -9.5506 C.ar    1  UNL1        0.2626
     19 C          19.3720   70.4225   -8.3196 C.ar    1  UNL1        0.0795
     20 C          19.0990   71.0690   -7.1664 C.ar    1  UNL1        0.0869
     21 O          17.7157   73.9938   -8.3913 O.2     1  UNL1       -0.2464
     22 O          19.2918   70.4829  -10.6042 O.2     1  UNL1       -0.2670
     23 H          18.2711   72.7051  -10.3844 H       1  UNL1        0.1734
     24 O          20.7036   70.1772   -0.4127 O.3     1  UNL1       -0.2703
     25 P          22.2885   70.3889   -0.2304 P.3     1  UNL1        0.2208
     26 O          22.9116   69.1134    0.1865 O.2     1  UNL1       -0.5170
     27 O          22.9301   70.8674   -1.6281 O.3     1  UNL1       -0.4371
     28 O          22.5556   71.5101    0.8929 O.3     1  UNL1       -0.2858
     29 C          21.3069   72.1590    1.1366 C.3     1  UNL1        0.2704
     30 C          21.3436   73.5709    0.5497 C.3     1  UNL1        0.1967
     31 C          22.4932   74.3499    1.1963 C.3     1  UNL1        0.1715
     32 C          22.3364   74.2806    2.7195 C.3     1  UNL1        0.1694
     33 C          22.2262   72.8136    3.1423 C.3     1  UNL1        0.1761
     34 O          21.5482   73.4970   -0.8624 O.3     1  UNL1       -0.3775
     35 O          22.4502   75.7127    0.7682 O.3     1  UNL1       -0.3794
     36 O          21.1575   74.9855    3.1110 O.3     1  UNL1       -0.3794
     37 O          21.0737   72.2247    2.5416 O.3     1  UNL1       -0.3258
     38 H          20.8069   72.9936   -1.2257 H       1  UNL1        0.2106
     39 H          22.5401   75.7071   -0.1931 H       1  UNL1        0.2105
     40 H          21.2687   75.9000    2.8201 H       1  UNL1        0.2105
     41 C          22.1037   72.7315    4.6655 C.3     1  UNL1        0.1693
     42 O          20.7454   72.9577    5.0461 O.3     1  UNL1       -0.3794
     43 H          20.7111   72.8968    6.0107 H       1  UNL1        0.2105
@<TRIPOS>BOND
     1    15    16   ar
     2    15    20   ar
     3    15     6    1
     4    16    17   ar
     5    16    21    2
     6    17    18   ar
     7    17    23    1
     8    18    19   ar
     9    18    22    2
    10    19    20   ar
    11     6     7    1
    12     6    11    1
    13     7     8    1
    14     7     9    1
    15     8    13    1
    16     9    10    1
    17     9    12    1
    18    10    11    1
    19    10     5    1
    20    12    14    1
    21     5     4    1
    22     4     1    1
    23     1     2    2
    24     1     3    1
    25     1    24    1
    26    24    25    1
    27    25    26    2
    28    25    27    1
    29    25    28    1
    30    28    29    1
    31    29    30    1
    32    29    37    1
    33    30    31    1
    34    30    34    1
    35    31    32    1
    36    31    35    1
    37    32    33    1
    38    32    36    1
    39    33    41    1
    40    33    37    1
    41    41    42    1
    42    34    38    1
    43    35    39    1
    44    36    40    1
    45    42    43    1
@<TRIPOS>MOLECULE
GDU
 43 45 0 0 0
SMALL
GASTEIGER

@<TRIPOS>ATOM
      1 P          21.9490   70.2840   -0.3727 P.3     1  UNL1        0.2189
      2 O          22.6811   69.2271    0.3599 O.2     1  UNL1       -0.5170
      3 O          23.0023   71.3118   -1.0262 O.3     1  UNL1       -0.4371
      4 O          21.0605   69.6150   -1.5346 O.3     1  UNL1       -0.3112
      5 C          21.1642   70.4665   -2.6768 C.3     1  UNL1        0.1811
      6 C          18.5340   70.8899   -5.0914 C.3     1  UNL1        0.2383
      7 C          18.2574   69.5043   -4.4537 C.3     1  UNL1        0.1895
      8 O          16.8569   69.2188   -4.4418 O.3     1  UNL1       -0.3779
      9 C          18.7948   69.6972   -3.0118 C.3     1  UNL1        0.1713
     10 C          19.7650   70.8873   -3.1300 C.3     1  UNL1        0.1764
     11 O          19.7972   71.2809   -4.5129 O.3     1  UNL1       -0.3308
     12 O          17.7241   70.0030   -2.1163 O.3     1  UNL1       -0.3794
     13 H          16.7533   68.3473   -4.0348 H       1  UNL1        0.2106
     14 H          17.1221   69.2467   -2.1309 H       1  UNL1        0.2105
     15 N          18.6459   70.7773   -6.5466 N.ar    1  UNL1       -0.2551
     16 C          17.5329   70.7432   -7.3004 C.ar    1  UNL1        0.3323
     17 N          17.6082   70.6437   -8.6407 N.ar    1  UNL1       -0.2743
     18 C          18.8066   70.5662   -9.2505 C.ar    1  UNL1        0.2626
     19 C          19.9874   70.5950   -8.4688 C.ar    1  UNL1        0.0795
     20 C          19.8834   70.6997   -7.1269 C.ar    1  UNL1        0.0869
     21 O          16.4447   70.8127   -6.7646 O.2     1  UNL1       -0.2464
     22 O          18.8756   70.4712  -10.4633 O.2     1  UNL1       -0.2670
     23 H          16.7946   70.6248   -9.1695 H       1  UNL1        0.1734
     24 O          20.9900   71.0776    0.6485 O.3     1  UNL1       -0.2703
     25 P          21.9490   71.8918    1.6522 P.3     1  UNL1        0.2208
     26 O          23.0217   70.9985    2.1424 O.2     1  UNL1       -0.5170
     27 O          22.6047   73.1398    0.8733 O.3     1  UNL1       -0.4371
     28 O          21.0873   72.4320    2.8995 O.3     1  UNL1       -0.2858
     29 C          21.3738   73.8251    3.0295 C.3     1  UNL1        0.2704
     30 C          22.2166   74.0566    4.2846 C.3     1  UNL1        0.1967
     31 C          21.4438   73.5472    5.5051 C.3     1  UNL1        0.1715
     32 C          20.0595   74.2054    5.5184 C.3     1  UNL1        0.1694
     33 C          19.3791   73.9607    4.1693 C.3     1  UNL1        0.1761
     34 O          23.4521   73.3485    4.1688 O.3     1  UNL1       -0.3775
     35 O          22.1519   73.8886    6.6986 O.3     1  UNL1       -0.3794
     36 O          20.2002   75.6093    5.7403 O.3     1  UNL1       -0.3794
     37 O          20.1517   74.5528    3.1260 O.3     1  UNL1       -0.3258
     38 H          23.9004   73.6958    3.3857 H       1  UNL1        0.2106
     39 H          23.0175   73.4646    6.6415 H       1  UNL1        0.2105
     40 H          20.6370   75.7151    6.5954 H       1  UNL1        0.2105
     41 C          17.9818   74.5847    4.1841 C.3     1  UNL1        0.1693
     42 O          17.5369   74.7226    5.5346 O.3     1  UNL1       -0.3794
     43 H          16.6555   75.1191    5.4999 H       1  UNL1        0.2105
@<TRIPOS>BOND
     1    15    16   ar
     2    15    20   ar
     3    15     6    1
     4    16    17   ar
     5    16    21    2
     6    17    18   ar
     7    17    23    1
     8    18    19   ar
     9    18    22    2
    10    19    20   ar
    11     6     7    1
    12     6    11    1
    13     7     8    1
    14     7     9    1
    15     8    13    1
    16     9    10    1
    17     9    12    1
    18    10    11    1
    19    10     5    1
    20    12    14    1
    21     5     4    1
    22     4     1    1
    23     1     2    2
    24     1     3    1
    25     1    24    1
    26    24    25    1
    27    25    26    2
    28    25    27    1
    29    25    28    1
    30    28    29    1
    31    29    30    1
    32    29    37    1
    33    30    31    1
    34    30    34    1
    35    31    32    1
    36    31    35    1
    37    32    33    1
    38    32    36    1
    39    33    41    1
    40    33    37    1
    41    41    42    1
    42    34    38    1
    43    35    39    1
    44    36    40    1
    45    42    43    1
@<TRIPOS>MOLECULE
GDU
 43 45 0 0 0
SMALL
GASTEIGER

@<TRIPOS>ATOM
      1 P          22.9634   72.3955   -3.3860 P.3     1  UNL1        0.2189
      2 O          23.7093   73.0084   -4.5074 O.2     1  UNL1       -0.5170
      3 O          23.5022   70.8984   -3.1379 O.3     1  UNL1       -0.4371
      4 O          23.1800   73.2713   -2.0545 O.3     1  UNL1       -0.3112
      5 C          23.2956   74.6333   -2.4694 C.3     1  UNL1        0.1811
      6 C          26.7308   75.6765   -2.6642 C.3     1  UNL1        0.2383
      7 C          25.9173   76.9493   -3.0122 C.3     1  UNL1        0.1895
      8 O          26.6118   78.1277   -2.5970 O.3     1  UNL1       -0.3779
      9 C          24.6249   76.7467   -2.1792 C.3     1  UNL1        0.1713
     10 C          24.5875   75.2310   -1.9092 C.3     1  UNL1        0.1764
     11 O          25.7229   74.6474   -2.5713 O.3     1  UNL1       -0.3308
     12 O          24.7003   77.4781   -0.9540 O.3     1  UNL1       -0.3794
     13 H          26.0552   78.8802   -2.8416 H       1  UNL1        0.2106
     14 H          24.7813   78.4122   -1.1900 H       1  UNL1        0.2105
     15 N          27.6878   75.3667   -3.7277 N.ar    1  UNL1       -0.2551
     16 C          28.8338   74.7298   -3.4287 C.ar    1  UNL1        0.3323
     17 N          29.7289   74.4300   -4.3883 N.ar    1  UNL1       -0.2743
     18 C          29.4937   74.7741   -5.6691 C.ar    1  UNL1        0.2626
     19 C          28.2935   75.4505   -5.9979 C.ar    1  UNL1        0.0795
     20 C          27.4110   75.7352   -5.0167 C.ar    1  UNL1        0.0869
     21 O          29.0597   74.4125   -2.2779 O.2     1  UNL1       -0.2464
     22 O          30.3056   74.5074   -6.5376 O.2     1  UNL1       -0.2670
     23 H          30.5489   73.9661   -4.1552 H       1  UNL1        0.1734
     24 O          21.3954   72.3467   -3.7487 O.3     1  UNL1       -0.2703
     25 P          21.2593   72.7863   -5.2909 P.3     1  UNL1        0.2208
     26 O          20.8636   74.2100   -5.3647 O.2     1  UNL1       -0.5170
     27 O          22.6743   72.5840   -6.0332 O.3     1  UNL1       -0.4371
     28 O          20.1421   71.8797   -6.0118 O.3     1  UNL1       -0.2858
     29 C          18.9813   72.6971   -6.1673 C.3     1  UNL1        0.2704
     30 C          17.7515   71.9345   -5.6720 C.3     1  UNL1        0.1967
     31 C          17.6116   70.6380   -6.4758 C.3     1  UNL1        0.1715
     32 C          17.6062   70.9853   -7.9688 C.3     1  UNL1        0.1694
     33 C          18.8491   71.8189   -8.2904 C.3     1  UNL1        0.1761
     34 O          17.9061   71.6255   -4.2857 O.3     1  UNL1       -0.3775
     35 O          16.3881   69.9868   -6.1275 O.3     1  UNL1       -0.3794
     36 O          16.4298   71.7326   -8.2813 O.3     1  UNL1       -0.3794
     37 O          18.8203   73.0341   -7.5432 O.3     1  UNL1       -0.3258
     38 H          17.9976   72.4682   -3.8206 H       1  UNL1        0.2106
     39 H          16.4306   69.7987   -5.1814 H       1  UNL1        0.2105
     40 H          15.6750   71.1725   -8.0580 H       1  UNL1        0.2105
     41 C          18.8712   72.1422   -9.7861 C.3     1  UNL1        0.1693
     42 O          18.9888   70.9300  -10.5329 O.3     1  UNL1       -0.3794
     43 H          18.9984   71.1771  -11.4679 H       1  UNL1        0.2105
@<TRIPOS>BOND
     1    15    16   ar
     2    15    20   ar
     3    15     6    1
     4    16    17   ar
     5    16    21    2
     6    17    18   ar
     7    17    23    1
     8    18    19   ar
     9    18    22    2
    10    19    20   ar
    11     6     7    1
    12     6    11    1
    13     7     8    1
    14     7     9    1
    15     8    13    1
    16     9    10    1
    17     9    12    1
    18    10    11    1
    19    10     5    1
    20    12    14    1
    21     5     4    1
    22     4     1    1
    23     1     2    2
    24     1     3    1
    25     1    24    1
    26    24    25    1
    27    25    26    2
    28    25    27    1
    29    25    28    1
    30    28    29    1
    31    29    30    1
    32    29    37    1
    33    30    31    1
    34    30    34    1
    35    31    32    1
    36    31    35    1
    37    32    33    1
    38    32    36    1
    39    33    41    1
    40    33    37    1
    41    41    42    1
    42    34    38    1
    43    35    39    1
    44    36    40    1
    45    42    43    1
@<TRIPOS>MOLECULE
GDU
 43 45 0 0 0
SMALL
GASTEIGER

@<TRIPOS>ATOM
      1 P          20.8087   70.2703   -2.8444 P.3     1  UNL1        0.2189
      2 O          19.9743   69.5181   -3.8074 O.2     1  UNL1       -0.5170
      3 O          22.3632   70.0821   -3.2197 O.3     1  UNL1       -0.4371
      4 O          20.4266   71.8313   -2.9075 O.3     1  UNL1       -0.3112
      5 C          19.0529   71.9367   -2.5299 C.3     1  UNL1        0.1811
      6 C          17.8818   72.9207   -5.7838 C.3     1  UNL1        0.2383
      7 C          16.7104   72.1053   -5.1788 C.3     1  UNL1        0.1895
      8 O          15.4536   72.5770   -5.6699 O.3     1  UNL1       -0.3779
      9 C          16.8579   72.4002   -3.6633 C.3     1  UNL1        0.1713
     10 C          18.3215   72.8545   -3.5112 C.3     1  UNL1        0.1764
     11 O          18.9356   72.7706   -4.8089 O.3     1  UNL1       -0.3308
     12 O          15.9607   73.4394   -3.2670 O.3     1  UNL1       -0.3794
     13 H          14.7702   72.0305   -5.2575 H       1  UNL1        0.2106
     14 H          15.0656   73.1182   -3.4410 H       1  UNL1        0.2105
     15 N          18.2895   72.3624   -7.0741 N.ar    1  UNL1       -0.2551
     16 C          18.5217   73.1841   -8.1128 C.ar    1  UNL1        0.3323
     17 N          18.9010   72.6967   -9.3088 N.ar    1  UNL1       -0.2743
     18 C          19.0452   71.3695   -9.4875 C.ar    1  UNL1        0.2626
     19 C          18.7984   70.4914   -8.4038 C.ar    1  UNL1        0.0795
     20 C          18.4232   71.0071   -7.2139 C.ar    1  UNL1        0.0869
     21 O          18.3962   74.3837   -7.9667 O.2     1  UNL1       -0.2464
     22 O          19.3838   70.9270  -10.5710 O.2     1  UNL1       -0.2670
     23 H          19.0685   73.3047  -10.0464 H       1  UNL1        0.1734
     24 O          20.5457   69.7118   -1.3573 O.3     1  UNL1       -0.2703
     25 P          21.6657   70.3694   -0.4070 P.3     1  UNL1        0.2208
     26 O          21.8761   69.5071    0.7768 O.2     1  UNL1       -0.5170
     27 O          23.0478   70.5068   -1.2226 O.3     1  UNL1       -0.4371
     28 O          21.1781   71.8272    0.0696 O.3     1  UNL1       -0.2858
     29 C          22.2181   72.3660    0.8869 C.3     1  UNL1        0.2704
     30 C          21.6229   72.8668    2.2038 C.3     1  UNL1        0.1967
     31 C          20.5665   73.9335    1.8997 C.3     1  UNL1        0.1715
     32 C          21.2014   75.0147    1.0179 C.3     1  UNL1        0.1694
     33 C          21.8273   74.3505   -0.2110 C.3     1  UNL1        0.1761
     34 O          21.0175   71.7765    2.9007 O.3     1  UNL1       -0.3775
     35 O          20.1066   74.5158    3.1212 O.3     1  UNL1       -0.3794
     36 O          22.2086   75.7050    1.7589 O.3     1  UNL1       -0.3794
     37 O          22.8496   73.4440    0.2001 O.3     1  UNL1       -0.3258
     38 H          21.7156   71.1279    3.0644 H       1  UNL1        0.2106
     39 H          19.7274   73.8002    3.6469 H       1  UNL1        0.2105
     40 H          21.7712   76.1012    2.5238 H       1  UNL1        0.2105
     41 C          22.4345   75.4252   -1.1157 C.3     1  UNL1        0.1693
     42 O          21.6738   76.6290   -1.0006 O.3     1  UNL1       -0.3794
     43 H          22.0887   77.2791   -1.5842 H       1  UNL1        0.2105
@<TRIPOS>BOND
     1    15    16   ar
     2    15    20   ar
     3    15     6    1
     4    16    17   ar
     5    16    21    2
     6    17    18   ar
     7    17    23    1
     8    18    19   ar
     9    18    22    2
    10    19    20   ar
    11     6     7    1
    12     6    11    1
    13     7     8    1
    14     7     9    1
    15     8    13    1
    16     9    10    1
    17     9    12    1
    18    10    11    1
    19    10     5    1
    20    12    14    1
    21     5     4    1
    22     4     1    1
    23     1     2    2
    24     1     3    1
    25     1    24    1
    26    24    25    1
    27    25    26    2
    28    25    27    1
    29    25    28    1
    30    28    29    1
    31    29    30    1
    32    29    37    1
    33    30    31    1
    34    30    34    1
    35    31    32    1
    36    31    35    1
    37    32    33    1
    38    32    36    1
    39    33    41    1
    40    33    37    1
    41    41    42    1
    42    34    38    1
    43    35    39    1
    44    36    40    1
    45    42    43    1
@<TRIPOS>MOLECULE
GDU
 43 45 0 0 0
SMALL
GASTEIGER

@<TRIPOS>ATOM
      1 P          22.4824   71.5775   -2.4757 P.3     1  UNL1        0.2189
      2 O          22.1686   70.9477   -1.1739 O.2     1  UNL1       -0.5170
      3 O          23.5875   70.6952   -3.2460 O.3     1  UNL1       -0.4371
      4 O          21.1464   71.6621   -3.3673 O.3     1  UNL1       -0.3112
      5 C          20.1540   72.3048   -2.5657 C.3     1  UNL1        0.1811
      6 C          17.9391   71.4278   -5.2587 C.3     1  UNL1        0.2383
      7 C          18.0160   70.1490   -4.3860 C.3     1  UNL1        0.1895
      8 O          16.7931   69.4119   -4.4525 O.3     1  UNL1       -0.3779
      9 C          18.2312   70.7365   -2.9669 C.3     1  UNL1        0.1713
     10 C          18.7833   72.1504   -3.2270 C.3     1  UNL1        0.1764
     11 O          18.9073   72.3091   -4.6510 O.3     1  UNL1       -0.3308
     12 O          16.9917   70.7986   -2.2587 O.3     1  UNL1       -0.3794
     13 H          16.9064   68.6323   -3.8911 H       1  UNL1        0.2106
     14 H          16.6686   69.8908   -2.1795 H       1  UNL1        0.2105
     15 N          18.3085   71.1325   -6.6440 N.ar    1  UNL1       -0.2551
     16 C          19.5519   71.4079   -7.0758 C.ar    1  UNL1        0.3323
     17 N          19.9181   71.1429   -8.3437 N.ar    1  UNL1       -0.2743
     18 C          19.0365   70.6036   -9.2076 C.ar    1  UNL1        0.2626
     19 C          17.7215   70.3136   -8.7683 C.ar    1  UNL1        0.0795
     20 C          17.3819   70.5855   -7.4904 C.ar    1  UNL1        0.0869
     21 O          20.3582   71.8939   -6.3080 O.2     1  UNL1       -0.2464
     22 O          19.3657   70.3678  -10.3567 O.2     1  UNL1       -0.2670
     23 H          20.8210   71.3441   -8.6371 H       1  UNL1        0.1734
     24 O          23.0588   73.0603   -2.2282 O.3     1  UNL1       -0.2703
     25 P          23.4883   73.6401   -3.6667 P.3     1  UNL1        0.2208
     26 O          23.3437   72.5801   -4.6887 O.2     1  UNL1       -0.5170
     27 O          22.5404   74.8852   -4.0480 O.3     1  UNL1       -0.4371
     28 O          25.0203   74.1302   -3.6134 O.3     1  UNL1       -0.2858
     29 C          24.9975   75.5564   -3.5419 C.3     1  UNL1        0.2704
     30 C          26.2974   76.1162   -4.1217 C.3     1  UNL1        0.1967
     31 C          27.4804   75.5536   -3.3277 C.3     1  UNL1        0.1715
     32 C          27.2529   75.8414   -1.8394 C.3     1  UNL1        0.1694
     33 C          25.8802   75.3003   -1.4320 C.3     1  UNL1        0.1761
     34 O          26.4139   75.7328   -5.4931 O.3     1  UNL1       -0.3775
     35 O          28.6902   76.1793   -3.7607 O.3     1  UNL1       -0.3794
     36 O          27.3030   77.2506   -1.6121 O.3     1  UNL1       -0.3794
     37 O          24.8609   75.9601   -2.1813 O.3     1  UNL1       -0.3258
     38 H          25.6467   76.1015   -5.9519 H       1  UNL1        0.2106
     39 H          28.7860   75.9825   -4.7011 H       1  UNL1        0.2105
     40 H          28.1801   77.5475   -1.8874 H       1  UNL1        0.2105
     41 C          25.6573   75.5521    0.0610 C.3     1  UNL1        0.1693
     42 O          26.9178   75.5732    0.7330 O.3     1  UNL1       -0.3794
     43 H          26.7335   75.7348    1.6686 H       1  UNL1        0.2105
@<TRIPOS>BOND
     1    15    16   ar
     2    15    20   ar
     3    15     6    1
     4    16    17   ar
     5    16    21    2
     6    17    18   ar
     7    17    23    1
     8    18    19   ar
     9    18    22    2
    10    19    20   ar
    11     6     7    1
    12     6    11    1
    13     7     8    1
    14     7     9    1
    15     8    13    1
    16     9    10    1
    17     9    12    1
    18    10    11    1
    19    10     5    1
    20    12    14    1
    21     5     4    1
    22     4     1    1
    23     1     2    2
    24     1     3    1
    25     1    24    1
    26    24    25    1
    27    25    26    2
    28    25    27    1
    29    25    28    1
    30    28    29    1
    31    29    30    1
    32    29    37    1
    33    30    31    1
    34    30    34    1
    35    31    32    1
    36    31    35    1
    37    32    33    1
    38    32    36    1
    39    33    41    1
    40    33    37    1
    41    41    42    1
    42    34    38    1
    43    35    39    1
    44    36    40    1
    45    42    43    1
@<TRIPOS>MOLECULE
GDU
 43 45 0 0 0
SMALL
GASTEIGER

@<TRIPOS>ATOM
      1 P          22.5419   74.6382   -3.4993 P.3     1  UNL1        0.2189
      2 O          21.9968   75.7814   -4.2646 O.2     1  UNL1       -0.5170
      3 O          23.8548   74.0732   -4.2409 O.3     1  UNL1       -0.4371
      4 O          22.9300   75.1217   -2.0153 O.3     1  UNL1       -0.3112
      5 C          22.0798   74.4119   -1.1132 C.3     1  UNL1        0.1811
      6 C          23.0886   72.6991    1.8828 C.3     1  UNL1        0.2383
      7 C          21.9917   71.7931    1.2672 C.3     1  UNL1        0.1895
      8 O          22.2299   70.4190    1.5811 O.3     1  UNL1       -0.3779
      9 C          22.1705   72.0525   -0.2514 C.3     1  UNL1        0.1713
     10 C          22.9082   73.4028   -0.3160 C.3     1  UNL1        0.1764
     11 O          23.0759   73.8670    1.0347 O.3     1  UNL1       -0.3308
     12 O          22.9554   71.0170   -0.8461 O.3     1  UNL1       -0.3794
     13 H          21.5156   69.9115    1.1712 H       1  UNL1        0.2106
     14 H          22.4694   70.1906   -0.7215 H       1  UNL1        0.2105
     15 N          22.7502   73.0586    3.2609 N.ar    1  UNL1       -0.2551
     16 C          21.5225   72.7882    3.7383 C.ar    1  UNL1        0.3323
     17 N          21.1870   73.1052    5.0028 N.ar    1  UNL1       -0.2743
     18 C          22.0780   73.7107    5.8112 C.ar    1  UNL1        0.2626
     19 C          23.3732   74.0068    5.3201 C.ar    1  UNL1        0.0795
     20 C          23.6848   73.6742    4.0494 C.ar    1  UNL1        0.0869
     21 O          20.7083   72.2419    3.0210 O.2     1  UNL1       -0.2464
     22 O          21.7737   74.0023    6.9544 O.2     1  UNL1       -0.2670
     23 H          20.2978   72.8988    5.3321 H       1  UNL1        0.1734
     24 O          21.4331   73.4740   -3.4130 O.3     1  UNL1       -0.2703
     25 P          22.0110   72.2173   -4.2357 P.3     1  UNL1        0.2208
     26 O          22.2110   72.6037   -5.6499 O.2     1  UNL1       -0.5170
     27 O          23.4190   71.7618   -3.6001 O.3     1  UNL1       -0.4371
     28 O          20.9667   70.9954   -4.1548 O.3     1  UNL1       -0.2858
     29 C          19.8565   71.4490   -3.3792 C.3     1  UNL1        0.2704
     30 C          19.3160   70.2914   -2.5383 C.3     1  UNL1        0.1967
     31 C          18.8945   69.1519   -3.4712 C.3     1  UNL1        0.1715
     32 C          17.9214   69.7088   -4.5164 C.3     1  UNL1        0.1694
     33 C          18.5691   70.9103   -5.2091 C.3     1  UNL1        0.1761
     34 O          20.3336   69.8310   -1.6474 O.3     1  UNL1       -0.3775
     35 O          18.2526   68.1239   -2.7138 O.3     1  UNL1       -0.3794
     36 O          16.7122   70.1159   -3.8745 O.3     1  UNL1       -0.3794
     37 O          18.8365   71.9324   -4.2500 O.3     1  UNL1       -0.3258
     38 H          20.5727   70.5808   -1.0856 H       1  UNL1        0.2106
     39 H          18.8950   67.8127   -2.0636 H       1  UNL1        0.2105
     40 H          16.3436   69.3312   -3.4484 H       1  UNL1        0.2105
     41 C          17.6191   71.4532   -6.2791 C.3     1  UNL1        0.1693
     42 O          16.8511   72.5268   -5.7326 O.3     1  UNL1       -0.3794
     43 H          16.2674   72.8403   -6.4371 H       1  UNL1        0.2105
@<TRIPOS>BOND
     1    15    16   ar
     2    15    20   ar
     3    15     6    1
     4    16    17   ar
     5    16    21    2
     6    17    18   ar
     7    17    23    1
     8    18    19   ar
     9    18    22    2
    10    19    20   ar
    11     6     7    1
    12     6    11    1
    13     7     8    1
    14     7     9    1
    15     8    13    1
    16     9    10    1
    17     9    12    1
    18    10    11    1
    19    10     5    1
    20    12    14    1
    21     5     4    1
    22     4     1    1
    23     1     2    2
    24     1     3    1
    25     1    24    1
    26    24    25    1
    27    25    26    2
    28    25    27    1
    29    25    28    1
    30    28    29    1
    31    29    30    1
    32    29    37    1
    33    30    31    1
    34    30    34    1
    35    31    32    1
    36    31    35    1
    37    32    33    1
    38    32    36    1
    39    33    41    1
    40    33    37    1
    41    41    42    1
    42    34    38    1
    43    35    39    1
    44    36    40    1
    45    42    43    1
@<TRIPOS>MOLECULE
GDU
 43 45 0 0 0
SMALL
GASTEIGER

@<TRIPOS>ATOM
      1 P          22.8104   73.2105   -3.2575 P.3     1  UNL1        0.2189
      2 O          22.3989   74.6234   -3.1022 O.2     1  UNL1       -0.5170
      3 O          24.0950   73.1291   -4.2251 O.3     1  UNL1       -0.4371
      4 O          23.1835   72.5985   -1.8177 O.3     1  UNL1       -0.3112
      5 C          22.4676   73.3619   -0.8454 C.3     1  UNL1        0.1811
      6 C          22.5362   73.4485    2.7483 C.3     1  UNL1        0.2383
      7 C          21.1189   72.9270    2.3987 C.3     1  UNL1        0.1895
      8 O          20.6365   72.0425    3.4127 O.3     1  UNL1       -0.3779
      9 C          21.3717   72.1631    1.0729 C.3     1  UNL1        0.1713
     10 C          22.6892   72.7590    0.5430 C.3     1  UNL1        0.1764
     11 O          23.0975   73.7868    1.4622 O.3     1  UNL1       -0.3308
     12 O          21.5126   70.7631    1.3220 O.3     1  UNL1       -0.3794
     13 H          19.7551   71.7555    3.1360 H       1  UNL1        0.2106
     14 H          20.6783   70.4617    1.7065 H       1  UNL1        0.2105
     15 N          22.4556   74.6336    3.6038 N.ar    1  UNL1       -0.2551
     16 C          23.3957   74.8440    4.5420 C.ar    1  UNL1        0.3323
     17 N          23.3468   75.9275    5.3392 N.ar    1  UNL1       -0.2743
     18 C          22.3440   76.8181    5.2154 C.ar    1  UNL1        0.2626
     19 C          21.3435   76.6064    4.2353 C.ar    1  UNL1        0.0795
     20 C          21.4190   75.5137    3.4462 C.ar    1  UNL1        0.0869
     21 O          24.3067   74.0496    4.6652 O.2     1  UNL1       -0.2464
     22 O          22.2962   77.7966    5.9397 O.2     1  UNL1       -0.2670
     23 H          24.0361   76.0657    6.0082 H       1  UNL1        0.1734
     24 O          21.5998   72.3678   -3.9029 O.3     1  UNL1       -0.2703
     25 P          21.3866   72.9268   -5.3969 P.3     1  UNL1        0.2208
     26 O          20.8163   74.2906   -5.3364 O.2     1  UNL1       -0.5170
     27 O          22.8042   72.9718   -6.1602 O.3     1  UNL1       -0.4371
     28 O          20.3795   71.9578   -6.1950 O.3     1  UNL1       -0.2858
     29 C          19.3154   72.7762   -6.6826 C.3     1  UNL1        0.2704
     30 C          18.0014   72.3459   -6.0287 C.3     1  UNL1        0.1967
     31 C          17.7423   70.8715   -6.3535 C.3     1  UNL1        0.1715
     32 C          17.8057   70.6862   -7.8738 C.3     1  UNL1        0.1694
     33 C          19.1364   71.2411   -8.3878 C.3     1  UNL1        0.1761
     34 O          18.0928   72.5168   -4.6132 O.3     1  UNL1       -0.3775
     35 O          16.4495   70.4945   -5.8750 O.3     1  UNL1       -0.3794
     36 O          16.7220   71.3866   -8.4861 O.3     1  UNL1       -0.3794
     37 O          19.2205   72.6357   -8.0982 O.3     1  UNL1       -0.3258
     38 H          18.2630   73.4555   -4.4559 H       1  UNL1        0.2106
     39 H          16.4516   70.6382   -4.9202 H       1  UNL1        0.2105
     40 H          15.9075   71.0089   -8.1295 H       1  UNL1        0.2105
     41 C          19.2247   71.0299   -9.9010 C.3     1  UNL1        0.1693
     42 O          18.3291   69.9865  -10.2885 O.3     1  UNL1       -0.3794
     43 H          18.4145   69.8857  -11.2465 H       1  UNL1        0.2105
@<TRIPOS>BOND
     1    15    16   ar
     2    15    20   ar
     3    15     6    1
     4    16    17   ar
     5    16    21    2
     6    17    18   ar
     7    17    23    1
     8    18    19   ar
     9    18    22    2
    10    19    20   ar
    11     6     7    1
    12     6    11    1
    13     7     8    1
    14     7     9    1
    15     8    13    1
    16     9    10    1
    17     9    12    1
    18    10    11    1
    19    10     5    1
    20    12    14    1
    21     5     4    1
    22     4     1    1
    23     1     2    2
    24     1     3    1
    25     1    24    1
    26    24    25    1
    27    25    26    2
    28    25    27    1
    29    25    28    1
    30    28    29    1
    31    29    30    1
    32    29    37    1
    33    30    31    1
    34    30    34    1
    35    31    32    1
    36    31    35    1
    37    32    33    1
    38    32    36    1
    39    33    41    1
    40    33    37    1
    41    41    42    1
    42    34    38    1
    43    35    39    1
    44    36    40    1
    45    42    43    1
@<TRIPOS>MOLECULE
GDU
 43 45 0 0 0
SMALL
GASTEIGER

@<TRIPOS>ATOM
      1 P          22.7705   72.0922   -3.5387 P.3     1  UNL1        0.2189
      2 O          23.7992   72.9101   -4.2186 O.2     1  UNL1       -0.5170
      3 O          23.3950   70.6599   -3.1492 O.3     1  UNL1       -0.4371
      4 O          22.2814   72.8450   -2.2042 O.3     1  UNL1       -0.3112
      5 C          22.4547   71.9267   -1.1239 C.3     1  UNL1        0.1811
      6 C          22.1919   73.6640    2.0130 C.3     1  UNL1        0.2383
      7 C          21.8123   74.7244    0.9479 C.3     1  UNL1        0.1895
      8 O          20.8728   75.6636    1.4757 O.3     1  UNL1       -0.3779
      9 C          21.1621   73.8545   -0.1592 C.3     1  UNL1        0.1713
     10 C          21.7071   72.4393    0.1084 C.3     1  UNL1        0.1764
     11 O          22.6094   72.5292    1.2247 O.3     1  UNL1       -0.3308
     12 O          19.7381   73.8798   -0.0428 O.3     1  UNL1       -0.3794
     13 H          20.6794   76.2929    0.7669 H       1  UNL1        0.2106
     14 H          19.4637   74.7992   -0.1610 H       1  UNL1        0.2105
     15 N          23.2924   74.1427    2.8512 N.ar    1  UNL1       -0.2551
     16 C          23.3668   73.7585    4.1377 C.ar    1  UNL1        0.3323
     17 N          24.3703   74.1815    4.9288 N.ar    1  UNL1       -0.2743
     18 C          25.3160   75.0090    4.4438 C.ar    1  UNL1        0.2626
     19 C          25.2473   75.4265    3.0921 C.ar    1  UNL1        0.0795
     20 C          24.2325   74.9840    2.3195 C.ar    1  UNL1        0.0869
     21 O          22.5213   73.0119    4.5892 O.2     1  UNL1       -0.2464
     22 O          26.2221   75.3961    5.1604 O.2     1  UNL1       -0.2670
     23 H          24.4107   73.8907    5.8538 H       1  UNL1        0.1734
     24 O          21.5168   71.8788   -4.5262 O.3     1  UNL1       -0.2703
     25 P          21.5575   73.0787   -5.5979 P.3     1  UNL1        0.2208
     26 O          21.7151   74.3678   -4.8891 O.2     1  UNL1       -0.5170
     27 O          22.8006   72.8618   -6.5989 O.3     1  UNL1       -0.4371
     28 O          20.1870   73.0930   -6.4414 O.3     1  UNL1       -0.2858
     29 C          19.8295   71.7302   -6.6754 C.3     1  UNL1        0.2704
     30 C          19.7959   71.4639   -8.1811 C.3     1  UNL1        0.1967
     31 C          18.7810   72.4087   -8.8320 C.3     1  UNL1        0.1715
     32 C          17.4364   72.2547   -8.1123 C.3     1  UNL1        0.1694
     33 C          17.6489   72.4632   -6.6108 C.3     1  UNL1        0.1761
     34 O          21.0917   71.6944   -8.7370 O.3     1  UNL1       -0.3775
     35 O          18.6301   72.0735  -10.2131 O.3     1  UNL1       -0.3794
     36 O          16.9149   70.9463   -8.3488 O.3     1  UNL1       -0.3794
     37 O          18.5463   71.4735   -6.1096 O.3     1  UNL1       -0.3258
     38 H          21.6977   71.0849   -8.2941 H       1  UNL1        0.2106
     39 H          19.4994   72.1725  -10.6217 H       1  UNL1        0.2105
     40 H          16.8031   70.8580   -9.3043 H       1  UNL1        0.2105
     41 C          16.3061   72.3455   -5.8862 C.3     1  UNL1        0.1693
     42 O          16.3427   71.2291   -4.9955 O.3     1  UNL1       -0.3794
     43 H          15.4803   71.1906   -4.5594 H       1  UNL1        0.2105
@<TRIPOS>BOND
     1    15    16   ar
     2    15    20   ar
     3    15     6    1
     4    16    17   ar
     5    16    21    2
     6    17    18   ar
     7    17    23    1
     8    18    19   ar
     9    18    22    2
    10    19    20   ar
    11     6     7    1
    12     6    11    1
    13     7     8    1
    14     7     9    1
    15     8    13    1
    16     9    10    1
    17     9    12    1
    18    10    11    1
    19    10     5    1
    20    12    14    1
    21     5     4    1
    22     4     1    1
    23     1     2    2
    24     1     3    1
    25     1    24    1
    26    24    25    1
    27    25    26    2
    28    25    27    1
    29    25    28    1
    30    28    29    1
    31    29    30    1
    32    29    37    1
    33    30    31    1
    34    30    34    1
    35    31    32    1
    36    31    35    1
    37    32    33    1
    38    32    36    1
    39    33    41    1
    40    33    37    1
    41    41    42    1
    42    34    38    1
    43    35    39    1
    44    36    40    1
    45    42    43    1
@<TRIPOS>MOLECULE
GDU
 43 45 0 0 0
SMALL
GASTEIGER

@<TRIPOS>ATOM
      1 P          19.8576   71.1690   -4.2877 P.3     1  UNL1        0.2189
      2 O          18.9182   71.3475   -3.1584 O.2     1  UNL1       -0.5170
      3 O          20.1124   69.5977   -4.5303 O.3     1  UNL1       -0.4371
      4 O          19.2300   71.8223   -5.6167 O.3     1  UNL1       -0.3112
      5 C          19.2832   70.8215   -6.6345 C.3     1  UNL1        0.1811
      6 C          16.5513   72.6779   -8.0550 C.3     1  UNL1        0.2383
      7 C          17.8117   73.2377   -8.7627 C.3     1  UNL1        0.1895
      8 O          17.5018   73.6702  -10.0894 O.3     1  UNL1       -0.3779
      9 C          18.7463   72.0002   -8.7886 C.3     1  UNL1        0.1713
     10 C          18.1945   71.0912   -7.6748 C.3     1  UNL1        0.1764
     11 O          17.0929   71.7824   -7.0609 O.3     1  UNL1       -0.3308
     12 O          18.6755   71.3471  -10.0576 O.3     1  UNL1       -0.3794
     13 H          18.3242   74.0059  -10.4725 H       1  UNL1        0.2106
     14 H          18.9773   71.9853  -10.7182 H       1  UNL1        0.2105
     15 N          15.7925   73.7562   -7.4191 N.ar    1  UNL1       -0.2551
     16 C          14.7979   74.3595   -8.0938 C.ar    1  UNL1        0.3323
     17 N          14.0826   75.3511   -7.5309 N.ar    1  UNL1       -0.2743
     18 C          14.3600   75.7637   -6.2791 C.ar    1  UNL1        0.2626
     19 C          15.4087   75.1413   -5.5585 C.ar    1  UNL1        0.0795
     20 C          16.1075   74.1464   -6.1453 C.ar    1  UNL1        0.0869
     21 O          14.5357   73.9978   -9.2236 O.2     1  UNL1       -0.2464
     22 O          13.7162   76.6644   -5.7705 O.2     1  UNL1       -0.2670
     23 H          13.3654   75.7724   -8.0309 H       1  UNL1        0.1734
     24 O          21.2546   71.8907   -3.9416 O.3     1  UNL1       -0.2703
     25 P          21.9727   70.9992   -2.8103 P.3     1  UNL1        0.2208
     26 O          21.1312   69.8217   -2.5027 O.2     1  UNL1       -0.5170
     27 O          23.4089   70.5062   -3.3474 O.3     1  UNL1       -0.4371
     28 O          22.1726   71.8799   -1.4782 O.3     1  UNL1       -0.2858
     29 C          20.9748   71.7503   -0.7114 C.3     1  UNL1        0.2704
     30 C          20.3845   73.1370   -0.4509 C.3     1  UNL1        0.1967
     31 C          21.4168   73.9857    0.2978 C.3     1  UNL1        0.1715
     32 C          21.8645   73.2218    1.5490 C.3     1  UNL1        0.1694
     33 C          22.3448   71.8283    1.1362 C.3     1  UNL1        0.1761
     34 O          20.0612   73.7610   -1.6948 O.3     1  UNL1       -0.3775
     35 O          20.8292   75.2318    0.6778 O.3     1  UNL1       -0.3794
     36 O          20.7672   73.1050    2.4558 O.3     1  UNL1       -0.3794
     37 O          21.2725   71.1104    0.5273 O.3     1  UNL1       -0.3258
     38 H          19.4158   73.1903   -2.1338 H       1  UNL1        0.2106
     39 H          20.5527   75.6707   -0.1366 H       1  UNL1        0.2105
     40 H          20.4952   74.0037    2.6832 H       1  UNL1        0.2105
     41 C          22.8265   71.0690    2.3745 C.3     1  UNL1        0.1693
     42 O          23.4781   69.8638    1.9698 O.3     1  UNL1       -0.3794
     43 H          23.7663   69.4166    2.7774 H       1  UNL1        0.2105
@<TRIPOS>BOND
     1    15    16   ar
     2    15    20   ar
     3    15     6    1
     4    16    17   ar
     5    16    21    2
     6    17    18   ar
     7    17    23    1
     8    18    19   ar
     9    18    22    2
    10    19    20   ar
    11     6     7    1
    12     6    11    1
    13     7     8    1
    14     7     9    1
    15     8    13    1
    16     9    10    1
    17     9    12    1
    18    10    11    1
    19    10     5    1
    20    12    14    1
    21     5     4    1
    22     4     1    1
    23     1     2    2
    24     1     3    1
    25     1    24    1
    26    24    25    1
    27    25    26    2
    28    25    27    1
    29    25    28    1
    30    28    29    1
    31    29    30    1
    32    29    37    1
    33    30    31    1
    34    30    34    1
    35    31    32    1
    36    31    35    1
    37    32    33    1
    38    32    36    1
    39    33    41    1
    40    33    37    1
    41    41    42    1
    42    34    38    1
    43    35    39    1
    44    36    40    1
    45    42    43    1
@<TRIPOS>MOLECULE
GDU
 43 45 0 0 0
SMALL
GASTEIGER

@<TRIPOS>ATOM
      1 P          20.4969   75.1938   -1.9651 P.3     1  UNL1        0.2189
      2 O          21.7283   74.4656   -2.3432 O.2     1  UNL1       -0.5170
      3 O          20.7148   76.7725   -2.1958 O.3     1  UNL1       -0.4371
      4 O          19.2709   74.6830   -2.8722 O.3     1  UNL1       -0.3112
      5 C          19.2120   73.2632   -2.7268 C.3     1  UNL1        0.1811
      6 C          17.4119   71.6650   -5.3975 C.3     1  UNL1        0.2383
      7 C          17.7452   70.5166   -4.4111 C.3     1  UNL1        0.1895
      8 O          16.7376   69.5034   -4.4490 O.3     1  UNL1       -0.3779
      9 C          17.7406   71.2504   -3.0448 C.3     1  UNL1        0.1713
     10 C          17.9535   72.7302   -3.4140 C.3     1  UNL1        0.1764
     11 O          18.1100   72.7996   -4.8419 O.3     1  UNL1       -0.3308
     12 O          16.4868   71.0680   -2.3840 O.3     1  UNL1       -0.3794
     13 H          17.0037   68.8217   -3.8163 H       1  UNL1        0.2106
     14 H          16.3851   70.1184   -2.2334 H       1  UNL1        0.2105
     15 N          17.9123   71.3577   -6.7384 N.ar    1  UNL1       -0.2551
     16 C          17.1754   70.5971   -7.5671 C.ar    1  UNL1        0.3323
     17 N          17.6109   70.3026   -8.8063 N.ar    1  UNL1       -0.2743
     18 C          18.8032   70.7599   -9.2345 C.ar    1  UNL1        0.2626
     19 C          19.5929   71.5574   -8.3704 C.ar    1  UNL1        0.0795
     20 C          19.1304   71.8411   -7.1343 C.ar    1  UNL1        0.0869
     21 O          16.0975   70.1778   -7.1950 O.2     1  UNL1       -0.2464
     22 O          19.2004   70.4899  -10.3543 O.2     1  UNL1       -0.2670
     23 H          17.0640   69.7559   -9.3926 H       1  UNL1        0.1734
     24 O          20.1681   74.9201   -0.4128 O.3     1  UNL1       -0.2703
     25 P          21.5654   75.0011    0.3815 P.3     1  UNL1        0.2208
     26 O          22.4465   75.9947   -0.2708 O.2     1  UNL1       -0.5170
     27 O          21.2913   75.4461    1.9050 O.3     1  UNL1       -0.4371
     28 O          22.2777   73.5581    0.3651 O.3     1  UNL1       -0.2858
     29 C          21.2678   72.5934    0.6640 C.3     1  UNL1        0.2704
     30 C          21.7432   71.6965    1.8081 C.3     1  UNL1        0.1967
     31 C          23.0452   71.0053    1.3918 C.3     1  UNL1        0.1715
     32 C          22.8151   70.2908    0.0554 C.3     1  UNL1        0.1694
     33 C          22.2599   71.2956   -0.9571 C.3     1  UNL1        0.1761
     34 O          21.9721   72.4894    2.9744 O.3     1  UNL1       -0.3775
     35 O          23.4236   70.0537    2.3888 O.3     1  UNL1       -0.3794
     36 O          21.8826   69.2244    0.2380 O.3     1  UNL1       -0.3794
     37 O          21.0094   71.8039   -0.4947 O.3     1  UNL1       -0.3258
     38 H          21.1301   72.9102    3.1953 H       1  UNL1        0.2106
     39 H          23.5456   70.5440    3.2116 H       1  UNL1        0.2105
     40 H          22.2703   68.6214    0.8856 H       1  UNL1        0.2105
     41 C          22.0586   70.6002   -2.3054 C.3     1  UNL1        0.1693
     42 O          23.2760   70.6483   -3.0516 O.3     1  UNL1       -0.3794
     43 H          23.1072   70.2000   -3.8917 H       1  UNL1        0.2105
@<TRIPOS>BOND
     1    15    16   ar
     2    15    20   ar
     3    15     6    1
     4    16    17   ar
     5    16    21    2
     6    17    18   ar
     7    17    23    1
     8    18    19   ar
     9    18    22    2
    10    19    20   ar
    11     6     7    1
    12     6    11    1
    13     7     8    1
    14     7     9    1
    15     8    13    1
    16     9    10    1
    17     9    12    1
    18    10    11    1
    19    10     5    1
    20    12    14    1
    21     5     4    1
    22     4     1    1
    23     1     2    2
    24     1     3    1
    25     1    24    1
    26    24    25    1
    27    25    26    2
    28    25    27    1
    29    25    28    1
    30    28    29    1
    31    29    30    1
    32    29    37    1
    33    30    31    1
    34    30    34    1
    35    31    32    1
    36    31    35    1
    37    32    33    1
    38    32    36    1
    39    33    41    1
    40    33    37    1
    41    41    42    1
    42    34    38    1
    43    35    39    1
    44    36    40    1
    45    42    43    1
@<TRIPOS>MOLECULE
GDU
 43 45 0 0 0
SMALL
GASTEIGER

@<TRIPOS>ATOM
      1 P          19.5848   75.1795   -2.2773 P.3     1  UNL1        0.2189
      2 O          18.6290   76.1079   -2.9207 O.2     1  UNL1       -0.5170
      3 O          19.6292   75.4676   -0.6936 O.3     1  UNL1       -0.4371
      4 O          19.1158   73.6626   -2.5338 O.3     1  UNL1       -0.3112
      5 C          17.8300   73.7262   -3.1529 C.3     1  UNL1        0.1811
      6 C          17.7267   70.8826   -5.3507 C.3     1  UNL1        0.2383
      7 C          18.8901   70.5767   -4.3730 C.3     1  UNL1        0.1895
      8 O          19.0254   69.1689   -4.1659 O.3     1  UNL1       -0.3779
      9 C          18.4188   71.2839   -3.0757 C.3     1  UNL1        0.1713
     10 C          17.3911   72.3204   -3.5667 C.3     1  UNL1        0.1764
     11 O          17.3376   72.2278   -5.0009 O.3     1  UNL1       -0.3308
     12 O          17.8077   70.3450   -2.1887 O.3     1  UNL1       -0.3794
     13 H          19.7627   69.0469   -3.5516 H       1  UNL1        0.2106
     14 H          18.4832   69.6907   -1.9646 H       1  UNL1        0.2105
     15 N          18.1875   70.8234   -6.7388 N.ar    1  UNL1       -0.2551
     16 C          17.3031   70.5960   -7.7259 C.ar    1  UNL1        0.3323
     17 N          17.7002   70.5403   -9.0109 N.ar    1  UNL1       -0.2743
     18 C          18.9989   70.7028   -9.3289 C.ar    1  UNL1        0.2626
     19 C          19.9426   70.9373   -8.2991 C.ar    1  UNL1        0.0795
     20 C          19.5167   70.9926   -7.0192 C.ar    1  UNL1        0.0869
     21 O          16.1281   70.4479   -7.4545 O.2     1  UNL1       -0.2464
     22 O          19.3599   70.6478  -10.4913 O.2     1  UNL1       -0.2670
     23 H          17.0476   70.3795   -9.7109 H       1  UNL1        0.1734
     24 O          21.0516   75.4022   -2.9031 O.3     1  UNL1       -0.2703
     25 P          22.1042   74.7747   -1.8598 P.3     1  UNL1        0.2208
     26 O          23.4361   74.6842   -2.4976 O.2     1  UNL1       -0.5170
     27 O          22.1963   75.7183   -0.5578 O.3     1  UNL1       -0.4371
     28 O          21.6165   73.3047   -1.4224 O.3     1  UNL1       -0.2858
     29 C          22.7800   72.4777   -1.3776 C.3     1  UNL1        0.2704
     30 C          22.4885   71.1504   -2.0794 C.3     1  UNL1        0.1967
     31 C          21.3106   70.4649   -1.3802 C.3     1  UNL1        0.1715
     32 C          21.6247   70.3564    0.1162 C.3     1  UNL1        0.1694
     33 C          21.9800   71.7455    0.6522 C.3     1  UNL1        0.1761
     34 O          22.1584   71.3948   -3.4478 O.3     1  UNL1       -0.3775
     35 O          21.1202   69.1592   -1.9292 O.3     1  UNL1       -0.3794
     36 O          22.7262   69.4680    0.3100 O.3     1  UNL1       -0.3794
     37 O          23.1388   72.2383   -0.0188 O.3     1  UNL1       -0.3258
     38 H          22.9234   71.8325   -3.8454 H       1  UNL1        0.2106
     39 H          20.9378   69.2751   -2.8702 H       1  UNL1        0.2105
     40 H          22.4601   68.6104   -0.0464 H       1  UNL1        0.2105
     41 C          22.2622   71.6541    2.1535 C.3     1  UNL1        0.1693
     42 O          21.0286   71.6985    2.8728 O.3     1  UNL1       -0.3794
     43 H          21.2500   71.6376    3.8122 H       1  UNL1        0.2105
@<TRIPOS>BOND
     1    15    16   ar
     2    15    20   ar
     3    15     6    1
     4    16    17   ar
     5    16    21    2
     6    17    18   ar
     7    17    23    1
     8    18    19   ar
     9    18    22    2
    10    19    20   ar
    11     6     7    1
    12     6    11    1
    13     7     8    1
    14     7     9    1
    15     8    13    1
    16     9    10    1
    17     9    12    1
    18    10    11    1
    19    10     5    1
    20    12    14    1
    21     5     4    1
    22     4     1    1
    23     1     2    2
    24     1     3    1
    25     1    24    1
    26    24    25    1
    27    25    26    2
    28    25    27    1
    29    25    28    1
    30    28    29    1
    31    29    30    1
    32    29    37    1
    33    30    31    1
    34    30    34    1
    35    31    32    1
    36    31    35    1
    37    32    33    1
    38    32    36    1
    39    33    41    1
    40    33    37    1
    41    41    42    1
    42    34    38    1
    43    35    39    1
    44    36    40    1
    45    42    43    1
@<TRIPOS>MOLECULE
GDU
 43 45 0 0 0
SMALL
GASTEIGER

@<TRIPOS>ATOM
      1 P          22.3453   73.9154   -5.2745 P.3     1  UNL1        0.2189
      2 O          23.0858   72.6347   -5.2430 O.2     1  UNL1       -0.5170
      3 O          23.3876   75.1344   -5.4190 O.3     1  UNL1       -0.4371
      4 O          21.3357   73.9214   -6.5265 O.3     1  UNL1       -0.3112
      5 C          21.6639   72.7854   -7.3281 C.3     1  UNL1        0.1811
      6 C          18.2280   71.9914   -8.0293 C.3     1  UNL1        0.2383
      7 C          18.9812   71.6528   -9.3412 C.3     1  UNL1        0.1895
      8 O          18.3423   70.5774  -10.0330 O.3     1  UNL1       -0.3779
      9 C          20.3743   71.2210   -8.8138 C.3     1  UNL1        0.1713
     10 C          20.4552   71.8513   -7.4111 C.3     1  UNL1        0.1764
     11 O          19.2446   72.5995   -7.2046 O.3     1  UNL1       -0.3308
     12 O          20.4594   69.7968   -8.7353 O.3     1  UNL1       -0.3794
     13 H          18.8574   70.4173  -10.8360 H       1  UNL1        0.2106
     14 H          20.3428   69.4593   -9.6338 H       1  UNL1        0.2105
     15 N          17.1392   72.9354   -8.2861 N.ar    1  UNL1       -0.2551
     16 C          16.0133   72.8702   -7.5536 C.ar    1  UNL1        0.3323
     17 N          14.9987   73.7286   -7.7671 N.ar    1  UNL1       -0.2743
     18 C          15.0920   74.6656   -8.7302 C.ar    1  UNL1        0.2626
     19 C          16.2697   74.7424   -9.5135 C.ar    1  UNL1        0.0795
     20 C          17.2737   73.8720   -9.2755 C.ar    1  UNL1        0.0869
     21 O          15.9148   72.0306   -6.6810 O.2     1  UNL1       -0.2464
     22 O          14.1722   75.4400   -8.9274 O.2     1  UNL1       -0.2670
     23 H          14.1952   73.6699   -7.2261 H       1  UNL1        0.1734
     24 O          21.5096   74.0848   -3.9088 O.3     1  UNL1       -0.2703
     25 P          22.5735   74.0403   -2.7021 P.3     1  UNL1        0.2208
     26 O          23.8010   73.3478   -3.1524 O.2     1  UNL1       -0.5170
     27 O          22.9396   75.5434   -2.2540 O.3     1  UNL1       -0.4371
     28 O          21.9374   73.2492   -1.4532 O.3     1  UNL1       -0.2858
     29 C          23.0274   72.8080   -0.6428 C.3     1  UNL1        0.2704
     30 C          22.9305   71.2952   -0.4388 C.3     1  UNL1        0.1967
     31 C          21.5919   70.9670    0.2297 C.3     1  UNL1        0.1715
     32 C          21.4623   71.8068    1.5054 C.3     1  UNL1        0.1694
     33 C          21.6688   73.2820    1.1533 C.3     1  UNL1        0.1761
     34 O          23.0100   70.6357   -1.7037 O.3     1  UNL1       -0.3775
     35 O          21.5484   69.5773    0.5603 O.3     1  UNL1       -0.3794
     36 O          22.4493   71.3938    2.4517 O.3     1  UNL1       -0.3794
     37 O          22.9782   73.4706    0.6186 O.3     1  UNL1       -0.3258
     38 H          23.8630   70.8759   -2.0904 H       1  UNL1        0.2106
     39 H          21.6452   69.0895   -0.2674 H       1  UNL1        0.2105
     40 H          22.2844   70.4604    2.6387 H       1  UNL1        0.2105
     41 C          21.5074   74.1331    2.4149 C.3     1  UNL1        0.1693
     42 O          20.8498   73.3661    3.4250 O.3     1  UNL1       -0.3794
     43 H          20.7685   73.9370    4.2014 H       1  UNL1        0.2105
@<TRIPOS>BOND
     1    15    16   ar
     2    15    20   ar
     3    15     6    1
     4    16    17   ar
     5    16    21    2
     6    17    18   ar
     7    17    23    1
     8    18    19   ar
     9    18    22    2
    10    19    20   ar
    11     6     7    1
    12     6    11    1
    13     7     8    1
    14     7     9    1
    15     8    13    1
    16     9    10    1
    17     9    12    1
    18    10    11    1
    19    10     5    1
    20    12    14    1
    21     5     4    1
    22     4     1    1
    23     1     2    2
    24     1     3    1
    25     1    24    1
    26    24    25    1
    27    25    26    2
    28    25    27    1
    29    25    28    1
    30    28    29    1
    31    29    30    1
    32    29    37    1
    33    30    31    1
    34    30    34    1
    35    31    32    1
    36    31    35    1
    37    32    33    1
    38    32    36    1
    39    33    41    1
    40    33    37    1
    41    41    42    1
    42    34    38    1
    43    35    39    1
    44    36    40    1
    45    42    43    1
@<TRIPOS>MOLECULE
GDU
 43 45 0 0 0
SMALL
GASTEIGER

@<TRIPOS>ATOM
      1 P          19.6678   69.7357   -3.4861 P.3     1  UNL1        0.2189
      2 O          19.1637   70.7777   -2.5643 O.2     1  UNL1       -0.5170
      3 O          18.8414   68.3725   -3.2584 O.3     1  UNL1       -0.4371
      4 O          19.4826   70.2280   -5.0060 O.3     1  UNL1       -0.3112
      5 C          18.0772   70.2782   -5.2563 C.3     1  UNL1        0.1811
      6 C          18.9889   72.7778   -7.6747 C.3     1  UNL1        0.2383
      7 C          18.8450   71.4730   -8.4991 C.3     1  UNL1        0.1895
      8 O          18.4107   71.7566   -9.8311 O.3     1  UNL1       -0.3779
      9 C          17.7490   70.7097   -7.7107 C.3     1  UNL1        0.1713
     10 C          17.7829   71.3479   -6.3096 C.3     1  UNL1        0.1764
     11 O          18.8300   72.3336   -6.3105 O.3     1  UNL1       -0.3308
     12 O          16.4714   70.8973   -8.3225 O.3     1  UNL1       -0.3794
     13 H          18.3418   70.9071  -10.2887 H       1  UNL1        0.2106
     14 H          16.5318   70.5310   -9.2152 H       1  UNL1        0.2105
     15 N          20.3117   73.3725   -7.8728 N.ar    1  UNL1       -0.2551
     16 C          21.4117   72.6098   -7.7443 C.ar    1  UNL1        0.3323
     17 N          22.6396   73.1311   -7.9247 N.ar    1  UNL1       -0.2743
     18 C          22.7868   74.4349   -8.2288 C.ar    1  UNL1        0.2626
     19 C          21.6372   75.2517   -8.3617 C.ar    1  UNL1        0.0795
     20 C          20.4176   74.7024   -8.1796 C.ar    1  UNL1        0.0869
     21 O          21.2948   71.4318   -7.4708 O.2     1  UNL1       -0.2464
     22 O          23.8980   74.9088   -8.3876 O.2     1  UNL1       -0.2670
     23 H          23.4224   72.5649   -7.8323 H       1  UNL1        0.1734
     24 O          21.2287   69.4707   -3.1929 O.3     1  UNL1       -0.2703
     25 P          21.9144   70.9108   -2.9790 P.3     1  UNL1        0.2208
     26 O          23.3851   70.7745   -3.0665 O.2     1  UNL1       -0.5170
     27 O          21.4011   71.9242   -4.1209 O.3     1  UNL1       -0.4371
     28 O          21.5131   71.4879   -1.5313 O.3     1  UNL1       -0.2858
     29 C          22.6974   71.4667   -0.7333 C.3     1  UNL1        0.2704
     30 C          22.3503   70.9981    0.6807 C.3     1  UNL1        0.1967
     31 C          21.3109   71.9502    1.2804 C.3     1  UNL1        0.1715
     32 C          21.8445   73.3838    1.1809 C.3     1  UNL1        0.1694
     33 C          22.2284   73.6722   -0.2726 C.3     1  UNL1        0.1761
     34 O          21.8151   69.6745    0.6284 O.3     1  UNL1       -0.3775
     35 O          21.0855   71.6133    2.6508 O.3     1  UNL1       -0.3794
     36 O          22.9913   73.5261    2.0203 O.3     1  UNL1       -0.3794
     37 O          23.2593   72.7761   -0.6851 O.3     1  UNL1       -0.3258
     38 H          22.4986   69.1124    0.2387 H       1  UNL1        0.2106
     39 H          20.7634   70.7032    2.6660 H       1  UNL1        0.2105
     40 H          22.7044   73.3301    2.9217 H       1  UNL1        0.2105
     41 C          22.7305   75.1131   -0.3893 C.3     1  UNL1        0.1693
     42 O          24.1427   75.1434   -0.1751 O.3     1  UNL1       -0.3794
     43 H          24.4186   76.0666   -0.2578 H       1  UNL1        0.2105
@<TRIPOS>BOND
     1    15    16   ar
     2    15    20   ar
     3    15     6    1
     4    16    17   ar
     5    16    21    2
     6    17    18   ar
     7    17    23    1
     8    18    19   ar
     9    18    22    2
    10    19    20   ar
    11     6     7    1
    12     6    11    1
    13     7     8    1
    14     7     9    1
    15     8    13    1
    16     9    10    1
    17     9    12    1
    18    10    11    1
    19    10     5    1
    20    12    14    1
    21     5     4    1
    22     4     1    1
    23     1     2    2
    24     1     3    1
    25     1    24    1
    26    24    25    1
    27    25    26    2
    28    25    27    1
    29    25    28    1
    30    28    29    1
    31    29    30    1
    32    29    37    1
    33    30    31    1
    34    30    34    1
    35    31    32    1
    36    31    35    1
    37    32    33    1
    38    32    36    1
    39    33    41    1
    40    33    37    1
    41    41    42    1
    42    34    38    1
    43    35    39    1
    44    36    40    1
    45    42    43    1
@<TRIPOS>MOLECULE
GDU
 43 45 0 0 0
SMALL
GASTEIGER

@<TRIPOS>ATOM
      1 P          22.9439   72.0407   -3.1560 P.3     1  UNL1        0.2189
      2 O          23.0655   72.6429   -1.8099 O.2     1  UNL1       -0.5170
      3 O          23.5398   70.5449   -3.1305 O.3     1  UNL1       -0.4371
      4 O          21.3946   71.9939   -3.5855 O.3     1  UNL1       -0.3112
      5 C          20.9361   70.6642   -3.3359 C.3     1  UNL1        0.1811
      6 C          17.5483   71.2016   -4.4136 C.3     1  UNL1        0.2383
      7 C          17.8223   69.7074   -4.7220 C.3     1  UNL1        0.1895
      8 O          16.6232   68.9366   -4.6163 O.3     1  UNL1       -0.3779
      9 C          18.8268   69.3238   -3.6044 C.3     1  UNL1        0.1713
     10 C          19.4173   70.6726   -3.1529 C.3     1  UNL1        0.1764
     11 O          18.8318   71.6962   -3.9760 O.3     1  UNL1       -0.3308
     12 O          18.1495   68.6797   -2.5235 O.3     1  UNL1       -0.3794
     13 H          16.8612   68.0212   -4.8194 H       1  UNL1        0.2106
     14 H          17.7525   67.8744   -2.8819 H       1  UNL1        0.2105
     15 N          17.1071   71.9067   -5.6182 N.ar    1  UNL1       -0.2551
     16 C          17.8203   71.7984   -6.7531 C.ar    1  UNL1        0.3323
     17 N          17.4345   72.4336   -7.8754 N.ar    1  UNL1       -0.2743
     18 C          16.3270   73.2001   -7.8765 C.ar    1  UNL1        0.2626
     19 C          15.5691   73.3280   -6.6867 C.ar    1  UNL1        0.0795
     20 C          15.9761   72.6768   -5.5764 C.ar    1  UNL1        0.0869
     21 O          18.8213   71.1102   -6.7676 O.2     1  UNL1       -0.2464
     22 O          15.9797   73.7793   -8.8906 O.2     1  UNL1       -0.2670
     23 H          17.9589   72.3408   -8.6867 H       1  UNL1        0.1734
     24 O          23.7694   72.9277   -4.2163 O.3     1  UNL1       -0.2703
     25 P          23.1547   74.4139   -4.1601 P.3     1  UNL1        0.2208
     26 O          22.4248   74.6934   -5.4164 O.2     1  UNL1       -0.5170
     27 O          22.1407   74.5283   -2.9140 O.3     1  UNL1       -0.4371
     28 O          24.3454   75.4818   -3.9812 O.3     1  UNL1       -0.2858
     29 C          25.4532   74.7778   -3.4184 C.3     1  UNL1        0.2704
     30 C          25.8043   75.3842   -2.0589 C.3     1  UNL1        0.1967
     31 C          26.1441   76.8660   -2.2466 C.3     1  UNL1        0.1715
     32 C          27.2355   76.9868   -3.3161 C.3     1  UNL1        0.1694
     33 C          26.7746   76.2599   -4.5819 C.3     1  UNL1        0.1761
     34 O          24.6891   75.2556   -1.1751 O.3     1  UNL1       -0.3775
     35 O          26.6157   77.4105   -1.0123 O.3     1  UNL1       -0.3794
     36 O          28.4440   76.3975   -2.8342 O.3     1  UNL1       -0.3794
     37 O          26.5723   74.8767   -4.2961 O.3     1  UNL1       -0.3258
     38 H          24.5065   74.3097   -1.0921 H       1  UNL1        0.2106
     39 H          25.9040   77.3025   -0.3687 H       1  UNL1        0.2105
     40 H          28.6926   76.8817   -2.0360 H       1  UNL1        0.2105
     41 C          27.8430   76.4037   -5.6682 C.3     1  UNL1        0.1693
     42 O          27.4064   75.7395   -6.8553 O.3     1  UNL1       -0.3794
     43 H          28.1058   75.8542   -7.5134 H       1  UNL1        0.2105
@<TRIPOS>BOND
     1    15    16   ar
     2    15    20   ar
     3    15     6    1
     4    16    17   ar
     5    16    21    2
     6    17    18   ar
     7    17    23    1
     8    18    19   ar
     9    18    22    2
    10    19    20   ar
    11     6     7    1
    12     6    11    1
    13     7     8    1
    14     7     9    1
    15     8    13    1
    16     9    10    1
    17     9    12    1
    18    10    11    1
    19    10     5    1
    20    12    14    1
    21     5     4    1
    22     4     1    1
    23     1     2    2
    24     1     3    1
    25     1    24    1
    26    24    25    1
    27    25    26    2
    28    25    27    1
    29    25    28    1
    30    28    29    1
    31    29    30    1
    32    29    37    1
    33    30    31    1
    34    30    34    1
    35    31    32    1
    36    31    35    1
    37    32    33    1
    38    32    36    1
    39    33    41    1
    40    33    37    1
    41    41    42    1
    42    34    38    1
    43    35    39    1
    44    36    40    1
    45    42    43    1
@<TRIPOS>MOLECULE
GDU
 43 45 0 0 0
SMALL
GASTEIGER

@<TRIPOS>ATOM
      1 P          21.8040   72.8735   -4.4385 P.3     1  UNL1        0.2189
      2 O          23.2071   72.4912   -4.7115 O.2     1  UNL1       -0.5170
      3 O          21.7669   73.9769   -3.2663 O.3     1  UNL1       -0.4371
      4 O          21.1447   73.4849   -5.7720 O.3     1  UNL1       -0.3112
      5 C          21.4712   72.5948   -6.8405 C.3     1  UNL1        0.1811
      6 C          18.1184   71.9441   -7.9640 C.3     1  UNL1        0.2383
      7 C          18.9983   71.7328   -9.2226 C.3     1  UNL1        0.1895
      8 O          18.4247   70.7491  -10.0866 O.3     1  UNL1       -0.3779
      9 C          20.3272   71.2215   -8.6078 C.3     1  UNL1        0.1713
     10 C          20.2700   71.6976   -7.1443 C.3     1  UNL1        0.1764
     11 O          19.0505   72.4421   -6.9809 O.3     1  UNL1       -0.3308
     12 O          20.3927   69.7957   -8.6749 O.3     1  UNL1       -0.3794
     13 H          19.0175   70.6657  -10.8465 H       1  UNL1        0.2106
     14 H          20.3655   69.5578   -9.6116 H       1  UNL1        0.2105
     15 N          17.0687   72.9303   -8.2256 N.ar    1  UNL1       -0.2551
     16 C          17.2202   73.8161   -9.2258 C.ar    1  UNL1        0.3323
     17 N          16.2686   74.7309   -9.4895 N.ar    1  UNL1       -0.2743
     18 C          15.1474   74.7798   -8.7447 C.ar    1  UNL1        0.2626
     19 C          14.9767   73.8566   -7.6841 C.ar    1  UNL1        0.0795
     20 C          15.9448   72.9469   -7.4440 C.ar    1  UNL1        0.0869
     21 O          18.2260   73.7840   -9.9066 O.2     1  UNL1       -0.2464
     22 O          14.2876   75.6105   -8.9796 O.2     1  UNL1       -0.2670
     23 H          16.3927   75.3598  -10.2180 H       1  UNL1        0.1734
     24 O          20.9748   71.5731   -3.9759 O.3     1  UNL1       -0.2703
     25 P          21.7842   70.9151   -2.7505 P.3     1  UNL1        0.2208
     26 O          21.3322   69.5201   -2.5535 O.2     1  UNL1       -0.5170
     27 O          23.3605   70.9262   -3.0812 O.3     1  UNL1       -0.4371
     28 O          21.5126   71.7627   -1.4096 O.3     1  UNL1       -0.2858
     29 C          22.6832   71.6450   -0.6000 C.3     1  UNL1        0.2704
     30 C          22.2951   71.1195    0.7830 C.3     1  UNL1        0.1967
     31 C          21.2917   72.0859    1.4200 C.3     1  UNL1        0.1715
     32 C          21.8914   73.4965    1.4029 C.3     1  UNL1        0.1694
     33 C          22.3086   73.8427   -0.0286 C.3     1  UNL1        0.1761
     34 O          21.7010   69.8266    0.6543 O.3     1  UNL1       -0.3775
     35 O          21.0318   71.6885    2.7679 O.3     1  UNL1       -0.3794
     36 O          23.0315   73.5415    2.2621 O.3     1  UNL1       -0.3794
     37 O          23.3034   72.9227   -0.4758 O.3     1  UNL1       -0.3258
     38 H          22.3636   69.2547    0.2435 H       1  UNL1        0.2106
     39 H          20.6684   70.7947    2.7310 H       1  UNL1        0.2105
     40 H          22.7232   73.3120    3.1484 H       1  UNL1        0.2105
     41 C          22.8775   75.2630   -0.0629 C.3     1  UNL1        0.1693
     42 O          23.6858   75.4233   -1.2299 O.3     1  UNL1       -0.3794
     43 H          24.0236   76.3294   -1.2140 H       1  UNL1        0.2105
@<TRIPOS>BOND
     1    15    16   ar
     2    15    20   ar
     3    15     6    1
     4    16    17   ar
     5    16    21    2
     6    17    18   ar
     7    17    23    1
     8    18    19   ar
     9    18    22    2
    10    19    20   ar
    11     6     7    1
    12     6    11    1
    13     7     8    1
    14     7     9    1
    15     8    13    1
    16     9    10    1
    17     9    12    1
    18    10    11    1
    19    10     5    1
    20    12    14    1
    21     5     4    1
    22     4     1    1
    23     1     2    2
    24     1     3    1
    25     1    24    1
    26    24    25    1
    27    25    26    2
    28    25    27    1
    29    25    28    1
    30    28    29    1
    31    29    30    1
    32    29    37    1
    33    30    31    1
    34    30    34    1
    35    31    32    1
    36    31    35    1
    37    32    33    1
    38    32    36    1
    39    33    41    1
    40    33    37    1
    41    41    42    1
    42    34    38    1
    43    35    39    1
    44    36    40    1
    45    42    43    1
@<TRIPOS>MOLECULE
GDU
 43 45 0 0 0
SMALL
GASTEIGER

@<TRIPOS>ATOM
      1 P          19.5151   70.4538   -4.1461 P.3     1  UNL1        0.2189
      2 O          18.5715   71.0307   -3.1631 O.2     1  UNL1       -0.5170
      3 O          19.7659   68.9009   -3.8015 O.3     1  UNL1       -0.4371
      4 O          18.8955   70.5821   -5.6247 O.3     1  UNL1       -0.3112
      5 C          17.6143   71.1980   -5.4844 C.3     1  UNL1        0.1811
      6 C          16.4368   73.1340   -8.2760 C.3     1  UNL1        0.2383
      7 C          17.8979   72.7697   -8.6438 C.3     1  UNL1        0.1895
      8 O          18.0520   72.6474  -10.0596 O.3     1  UNL1       -0.3779
      9 C          18.0753   71.3954   -7.9474 C.3     1  UNL1        0.1713
     10 C          16.9803   71.3804   -6.8646 C.3     1  UNL1        0.1764
     11 O          16.2974   72.6446   -6.9253 O.3     1  UNL1       -0.3308
     12 O          17.8784   70.3326   -8.8821 O.3     1  UNL1       -0.3794
     13 H          18.9786   72.4211  -10.2208 H       1  UNL1        0.2106
     14 H          18.5559   70.4309   -9.5648 H       1  UNL1        0.2105
     15 N          16.2369   74.5834   -8.3227 N.ar    1  UNL1       -0.2551
     16 C          15.0283   75.0799   -8.6406 C.ar    1  UNL1        0.3323
     17 N          14.8170   76.4085   -8.6872 N.ar    1  UNL1       -0.2743
     18 C          15.8215   77.2664   -8.4240 C.ar    1  UNL1        0.2626
     19 C          17.1014   76.7577   -8.0932 C.ar    1  UNL1        0.0795
     20 C          17.2847   75.4209   -8.0496 C.ar    1  UNL1        0.0869
     21 O          14.1124   74.3184   -8.8801 O.2     1  UNL1       -0.2464
     22 O          15.6324   78.4691   -8.4705 O.2     1  UNL1       -0.2670
     23 H          13.9373   76.7494   -8.9142 H       1  UNL1        0.1734
     24 O          20.9131   71.2497   -4.0776 O.3     1  UNL1       -0.2703
     25 P          21.7111   70.6823   -2.8005 P.3     1  UNL1        0.2208
     26 O          21.2327   69.3179   -2.4865 O.2     1  UNL1       -0.5170
     27 O          23.2870   70.6353   -3.1301 O.3     1  UNL1       -0.4371
     28 O          21.4571   71.6453   -1.5363 O.3     1  UNL1       -0.2858
     29 C          22.6333   71.5882   -0.7282 C.3     1  UNL1        0.2704
     30 C          22.2625   71.1137    0.6778 C.3     1  UNL1        0.1967
     31 C          21.2405   72.0839    1.2781 C.3     1  UNL1        0.1715
     32 C          21.8084   73.5054    1.1980 C.3     1  UNL1        0.1694
     33 C          22.2120   73.7994   -0.2489 C.3     1  UNL1        0.1761
     34 O          21.6970   69.8036    0.6072 O.3     1  UNL1       -0.3775
     35 O          20.9948   71.7386    2.6430 O.3     1  UNL1       -0.3794
     36 O          22.9506   73.6122    2.0489 O.3     1  UNL1       -0.3794
     37 O          23.2253   72.8834   -0.6616 O.3     1  UNL1       -0.3258
     38 H          22.3706   69.2295    0.2178 H       1  UNL1        0.2106
     39 H          20.6513   70.8362    2.6459 H       1  UNL1        0.2105
     40 H          22.6511   73.4139    2.9457 H       1  UNL1        0.2105
     41 C          22.7488   75.2292   -0.3464 C.3     1  UNL1        0.1693
     42 O          22.1173   76.0427    0.6437 O.3     1  UNL1       -0.3794
     43 H          22.4830   76.9330    0.5492 H       1  UNL1        0.2105
@<TRIPOS>BOND
     1    15    16   ar
     2    15    20   ar
     3    15     6    1
     4    16    17   ar
     5    16    21    2
     6    17    18   ar
     7    17    23    1
     8    18    19   ar
     9    18    22    2
    10    19    20   ar
    11     6     7    1
    12     6    11    1
    13     7     8    1
    14     7     9    1
    15     8    13    1
    16     9    10    1
    17     9    12    1
    18    10    11    1
    19    10     5    1
    20    12    14    1
    21     5     4    1
    22     4     1    1
    23     1     2    2
    24     1     3    1
    25     1    24    1
    26    24    25    1
    27    25    26    2
    28    25    27    1
    29    25    28    1
    30    28    29    1
    31    29    30    1
    32    29    37    1
    33    30    31    1
    34    30    34    1
    35    31    32    1
    36    31    35    1
    37    32    33    1
    38    32    36    1
    39    33    41    1
    40    33    37    1
    41    41    42    1
    42    34    38    1
    43    35    39    1
    44    36    40    1
    45    42    43    1
@<TRIPOS>MOLECULE
GDU
 43 45 0 0 0
SMALL
GASTEIGER

@<TRIPOS>ATOM
      1 P          21.7813   71.4529   -3.4221 P.3     1  UNL1        0.2189
      2 O          21.2124   72.3426   -4.4586 O.2     1  UNL1       -0.5170
      3 O          23.3879   71.5580   -3.4476 O.3     1  UNL1       -0.4371
      4 O          21.2374   71.8976   -1.9752 O.3     1  UNL1       -0.3112
      5 C          22.1716   72.8449   -1.4552 C.3     1  UNL1        0.1811
      6 C          22.6756   73.3455    2.0694 C.3     1  UNL1        0.2383
      7 C          21.2672   72.7065    1.9646 C.3     1  UNL1        0.1895
      8 O          20.9780   71.9173    3.1208 O.3     1  UNL1       -0.3779
      9 C          21.4091   71.8120    0.7057 C.3     1  UNL1        0.1713
     10 C          22.6051   72.4185   -0.0515 C.3     1  UNL1        0.1764
     11 O          23.0486   73.5665    0.6926 O.3     1  UNL1       -0.3308
     12 O          21.6798   70.4601    1.0813 O.3     1  UNL1       -0.3794
     13 H          20.0922   71.5501    2.9933 H       1  UNL1        0.2106
     14 H          20.9230   70.1569    1.6010 H       1  UNL1        0.2105
     15 N          22.6160   74.6140    2.7976 N.ar    1  UNL1       -0.2551
     16 C          23.3956   74.8004    3.8772 C.ar    1  UNL1        0.3323
     17 N          23.3626   75.9586    4.5624 N.ar    1  UNL1       -0.2743
     18 C          22.5359   76.9511    4.1807 C.ar    1  UNL1        0.2626
     19 C          21.7047   76.7667    3.0488 C.ar    1  UNL1        0.0795
     20 C          21.7608   75.5969    2.3772 C.ar    1  UNL1        0.0869
     21 O          24.1468   73.9144    4.2332 O.2     1  UNL1       -0.2464
     22 O          22.5018   77.9980    4.8031 O.2     1  UNL1       -0.2670
     23 H          23.9353   76.0775    5.3367 H       1  UNL1        0.1734
     24 O          21.3395   69.9334   -3.7191 O.3     1  UNL1       -0.2703
     25 P          19.9285   69.7046   -2.9798 P.3     1  UNL1        0.2208
     26 O          19.3700   68.3937   -3.3780 O.2     1  UNL1       -0.5170
     27 O          20.1483   69.7315   -1.3844 O.3     1  UNL1       -0.4371
     28 O          18.9058   70.8744   -3.3991 O.3     1  UNL1       -0.2858
     29 C          17.9640   70.2974   -4.3045 C.3     1  UNL1        0.2704
     30 C          18.1740   70.8853   -5.7008 C.3     1  UNL1        0.1967
     31 C          17.9980   72.4054   -5.6334 C.3     1  UNL1        0.1715
     32 C          16.6396   72.7135   -4.9935 C.3     1  UNL1        0.1694
     33 C          16.5468   71.9880   -3.6488 C.3     1  UNL1        0.1761
     34 O          19.4914   70.5743   -6.1579 O.3     1  UNL1       -0.3775
     35 O          18.0453   72.9532   -6.9526 O.3     1  UNL1       -0.3794
     36 O          15.5926   72.2668   -5.8562 O.3     1  UNL1       -0.3794
     37 O          16.6408   70.5792   -3.8546 O.3     1  UNL1       -0.3258
     38 H          19.5594   69.6100   -6.1778 H       1  UNL1        0.2106
     39 H          18.9090   72.7256   -7.3193 H       1  UNL1        0.2105
     40 H          15.6939   72.7445   -6.6898 H       1  UNL1        0.2105
     41 C          15.2075   72.3166   -2.9853 C.3     1  UNL1        0.1693
     42 O          14.9707   71.4019   -1.9137 O.3     1  UNL1       -0.3794
     43 H          14.1197   71.6432   -1.5227 H       1  UNL1        0.2105
@<TRIPOS>BOND
     1    15    16   ar
     2    15    20   ar
     3    15     6    1
     4    16    17   ar
     5    16    21    2
     6    17    18   ar
     7    17    23    1
     8    18    19   ar
     9    18    22    2
    10    19    20   ar
    11     6     7    1
    12     6    11    1
    13     7     8    1
    14     7     9    1
    15     8    13    1
    16     9    10    1
    17     9    12    1
    18    10    11    1
    19    10     5    1
    20    12    14    1
    21     5     4    1
    22     4     1    1
    23     1     2    2
    24     1     3    1
    25     1    24    1
    26    24    25    1
    27    25    26    2
    28    25    27    1
    29    25    28    1
    30    28    29    1
    31    29    30    1
    32    29    37    1
    33    30    31    1
    34    30    34    1
    35    31    32    1
    36    31    35    1
    37    32    33    1
    38    32    36    1
    39    33    41    1
    40    33    37    1
    41    41    42    1
    42    34    38    1
    43    35    39    1
    44    36    40    1
    45    42    43    1
