@<TRIPOS>MOLECULE
UD2
 46 48 0 0 0
SMALL
GASTEIGER

@<TRIPOS>ATOM
      1 P          20.8439   71.2449   -3.3676 P.3     1  UNL1        0.2189
      2 O          21.1143   70.5403   -1.9457 O.3     1  UNL1       -0.4371
      3 O          20.7809   70.2132   -4.4261 O.2     1  UNL1       -0.5170
      4 O          19.4468   72.0442   -3.3132 O.3     1  UNL1       -0.3112
      5 C          18.3201   71.5894   -2.5614 C.3     1  UNL1        0.1811
      6 C          16.9825   70.5890   -5.7468 C.3     1  UNL1        0.2383
      7 C          17.2611   69.2568   -5.0053 C.3     1  UNL1        0.1895
      8 O          16.3345   68.2460   -5.4072 O.3     1  UNL1       -0.3779
      9 C          17.0369   69.6549   -3.5259 C.3     1  UNL1        0.1713
     10 C          17.1965   71.1872   -3.5200 C.3     1  UNL1        0.1764
     11 O          17.5294   71.5879   -4.8587 O.3     1  UNL1       -0.3308
     12 O          15.7226   69.2869   -3.1039 O.3     1  UNL1       -0.3794
     13 H          16.4684   67.3936   -4.9712 H       1  UNL1        0.2106
     14 H          15.5473   68.3371   -3.1441 H       1  UNL1        0.2105
     15 N          17.6717   70.6140   -7.0389 N.ar    1  UNL1       -0.2551
     16 C          16.9589   70.5280   -8.1761 C.ar    1  UNL1        0.3323
     17 N          17.5659   70.5483   -9.3775 N.ar    1  UNL1       -0.2743
     18 C          18.9076   70.6579   -9.4582 C.ar    1  UNL1        0.2626
     19 C          19.6702   70.7503   -8.2691 C.ar    1  UNL1        0.0795
     20 C          19.0350   70.7317   -7.0785 C.ar    1  UNL1        0.0869
     21 O          15.7484   70.4290   -8.1184 O.2     1  UNL1       -0.2464
     22 O          19.4582   70.6768  -10.5449 O.2     1  UNL1       -0.2670
     23 H          17.0370   70.4841  -10.1876 H       1  UNL1        0.1734
     24 O          22.0384   72.2751   -3.6922 O.3     1  UNL1       -0.2703
     25 P          23.5961   72.3431   -3.2899 P.3     1  UNL1        0.2208
     26 O          24.1238   70.8631   -2.9367 O.3     1  UNL1       -0.4371
     27 O          24.3755   72.8864   -4.4239 O.2     1  UNL1       -0.5170
     28 O          23.7777   73.2986   -2.0066 O.3     1  UNL1       -0.2865
     29 C          22.7953   73.4122   -0.9755 C.3     1  UNL1        0.2611
     30 C          22.9803   74.7401   -0.2371 C.3     1  UNL1        0.1582
     31 C          24.3590   74.7554    0.4302 C.3     1  UNL1        0.1625
     32 C          24.4745   73.5496    1.3667 C.3     1  UNL1        0.1686
     33 C          24.2319   72.2673    0.5663 C.3     1  UNL1        0.1760
     34 O          24.5114   75.9611    1.1830 O.3     1  UNL1       -0.3801
     35 O          23.4995   73.6565    2.4055 O.3     1  UNL1       -0.3794
     36 O          22.9459   72.3307   -0.0535 O.3     1  UNL1       -0.3263
     37 H          25.3640   76.0383    1.6328 H       1  UNL1        0.2105
     38 H          23.5148   72.9238    3.0371 H       1  UNL1        0.2105
     39 C          24.0016   76.3420   -1.7630 C.2     1  UNL1        0.2231
     40 C          23.9053   77.4807   -2.7443 C.3     1  UNL1        0.0946
     41 N          22.8858   75.8478   -1.1913 N.am    1  UNL1       -0.2994
     42 O          25.0843   75.8691   -1.4867 O.2     1  UNL1       -0.2751
     43 H          22.0201   76.2262   -1.4112 H       1  UNL1        0.1496
     44 C          24.2865   71.0616    1.5063 C.3     1  UNL1        0.1693
     45 O          23.0917   71.0123    2.2889 O.3     1  UNL1       -0.3794
     46 H          23.0573   70.2711    2.9091 H       1  UNL1        0.2105
@<TRIPOS>BOND
     1    29    30    1
     2    30    41    1
     3    30    31    1
     4    31    34    1
     5    31    32    1
     6    32    35    1
     7    32    33    1
     8    33    36    1
     9    33    44    1
    10    39    40    1
    11    39    42    2
    12    39    41   am
    13    41    43    1
    14    29    28    1
    15    34    37    1
    16    35    38    1
    17    29    36    1
    18    44    45    1
    19    45    46    1
    20    15     6    1
    21    15    16   ar
    22    16    21    2
    23    16    17   ar
    24    17    23    1
    25    17    18   ar
    26    18    19   ar
    27    19    20   ar
    28    15    20   ar
    29    18    22    2
    30     6     7    1
    31     6    11    1
    32     7     9    1
    33     7     8    1
    34     8    13    1
    35     9    10    1
    36     9    12    1
    37    10     5    1
    38    10    11    1
    39    12    14    1
    40     5     4    1
    41     4     1    1
    42     1     2    1
    43     1    24    1
    44     1     3    2
    45    24    25    1
    46    28    25    1
    47    25    26    1
    48    25    27    2
@<TRIPOS>MOLECULE
UD2
 46 48 0 0 0
SMALL
GASTEIGER

@<TRIPOS>ATOM
      1 P          20.0686   72.3740   -1.1072 P.3     1  UNL1        0.2189
      2 O          20.1352   73.3085   -2.4163 O.3     1  UNL1       -0.4371
      3 O          19.4946   73.1423    0.0194 O.2     1  UNL1       -0.5170
      4 O          19.1421   71.0920   -1.4099 O.3     1  UNL1       -0.3112
      5 C          19.2300   70.3380   -2.6204 C.3     1  UNL1        0.1811
      6 C          17.3343   70.4629   -5.6745 C.3     1  UNL1        0.2383
      7 C          17.1383   69.0166   -5.1530 C.3     1  UNL1        0.1895
      8 O          15.8608   68.5046   -5.5370 O.3     1  UNL1       -0.3779
      9 C          17.2173   69.2104   -3.6189 C.3     1  UNL1        0.1713
     10 C          17.9588   70.5498   -3.4463 C.3     1  UNL1        0.1764
     11 O          18.3018   71.0213   -4.7591 O.3     1  UNL1       -0.3308
     12 O          15.9059   69.2883   -3.0577 O.3     1  UNL1       -0.3794
     13 H          15.6913   67.6022   -5.2346 H       1  UNL1        0.2106
     14 H          15.3730   68.4926   -3.1893 H       1  UNL1        0.2105
     15 N          17.8626   70.4515   -7.0404 N.ar    1  UNL1       -0.2551
     16 C          17.0134   70.4342   -8.0832 C.ar    1  UNL1        0.3323
     17 N          17.4709   70.4232   -9.3492 N.ar    1  UNL1       -0.2743
     18 C          18.7975   70.4315   -9.5915 C.ar    1  UNL1        0.2626
     19 C          19.7028   70.4508   -8.5033 C.ar    1  UNL1        0.0795
     20 C          19.2162   70.4657   -7.2445 C.ar    1  UNL1        0.0869
     21 O          15.8147   70.4268   -7.8796 O.2     1  UNL1       -0.2464
     22 O          19.2130   70.4220  -10.7369 O.2     1  UNL1       -0.2670
     23 H          16.8449   70.4095  -10.0895 H       1  UNL1        0.1734
     24 O          21.5531   71.8835   -0.7216 O.3     1  UNL1       -0.2703
     25 P          22.2336   71.3372    0.6317 P.3     1  UNL1        0.2208
     26 O          21.5440   69.9445    1.0543 O.3     1  UNL1       -0.4371
     27 O          23.6796   71.1221    0.4051 O.2     1  UNL1       -0.5170
     28 O          22.0291   72.4166    1.8088 O.3     1  UNL1       -0.2865
     29 C          22.6771   73.6899    1.8185 C.3     1  UNL1        0.2611
     30 C          23.5576   73.8059    3.0652 C.3     1  UNL1        0.1582
     31 C          22.6735   73.7244    4.3134 C.3     1  UNL1        0.1625
     32 C          21.6127   74.8266    4.2474 C.3     1  UNL1        0.1686
     33 C          20.8070   74.6711    2.9549 C.3     1  UNL1        0.1760
     34 O          23.4783   73.9055    5.4808 O.3     1  UNL1       -0.3801
     35 O          22.2505   76.1049    4.2624 O.3     1  UNL1       -0.3794
     36 O          21.6921   74.7252    1.8343 O.3     1  UNL1       -0.3263
     37 H          22.9824   73.8649    6.3101 H       1  UNL1        0.2105
     38 H          21.6369   76.8519    4.2221 H       1  UNL1        0.2105
     39 C          25.8094   72.9388    2.7258 C.2     1  UNL1        0.2231
     40 C          26.8095   71.8128    2.7424 C.3     1  UNL1        0.0946
     41 N          24.5298   72.7100    3.0813 N.am    1  UNL1       -0.2994
     42 O          26.1555   74.0529    2.3923 O.2     1  UNL1       -0.2751
     43 H          24.2524   71.8192    3.3471 H       1  UNL1        0.1496
     44 C          19.7841   75.8041    2.8524 C.3     1  UNL1        0.1693
     45 O          19.2766   75.8695    1.5180 O.3     1  UNL1       -0.3794
     46 H          18.6215   76.5670    1.3795 H       1  UNL1        0.2105
@<TRIPOS>BOND
     1    29    30    1
     2    30    41    1
     3    30    31    1
     4    31    34    1
     5    31    32    1
     6    32    35    1
     7    32    33    1
     8    33    36    1
     9    33    44    1
    10    39    40    1
    11    39    42    2
    12    39    41   am
    13    41    43    1
    14    29    28    1
    15    34    37    1
    16    35    38    1
    17    29    36    1
    18    44    45    1
    19    45    46    1
    20    15     6    1
    21    15    16   ar
    22    16    21    2
    23    16    17   ar
    24    17    23    1
    25    17    18   ar
    26    18    19   ar
    27    19    20   ar
    28    15    20   ar
    29    18    22    2
    30     6     7    1
    31     6    11    1
    32     7     9    1
    33     7     8    1
    34     8    13    1
    35     9    10    1
    36     9    12    1
    37    10     5    1
    38    10    11    1
    39    12    14    1
    40     5     4    1
    41     4     1    1
    42     1     2    1
    43     1    24    1
    44     1     3    2
    45    24    25    1
    46    28    25    1
    47    25    26    1
    48    25    27    2
@<TRIPOS>MOLECULE
UD2
 46 48 0 0 0
SMALL
GASTEIGER

@<TRIPOS>ATOM
      1 P          21.1225   71.4266   -3.1478 P.3     1  UNL1        0.2189
      2 O          20.6677   72.7745   -2.3942 O.3     1  UNL1       -0.4371
      3 O          22.2538   70.8112   -2.4196 O.2     1  UNL1       -0.5170
      4 O          19.8874   70.3940   -3.1921 O.3     1  UNL1       -0.3112
      5 C          18.7042   70.5634   -2.4093 C.3     1  UNL1        0.1811
      6 C          17.0550   70.4926   -5.6048 C.3     1  UNL1        0.2383
      7 C          16.9706   69.0331   -5.0903 C.3     1  UNL1        0.1895
      8 O          15.7883   68.3904   -5.5708 O.3     1  UNL1       -0.3779
      9 C          16.9065   69.2322   -3.5562 C.3     1  UNL1        0.1713
     10 C          17.4876   70.6418   -3.3348 C.3     1  UNL1        0.1764
     11 O          17.8827   71.1483   -4.6196 O.3     1  UNL1       -0.3308
     12 O          15.5537   69.1712   -3.1013 O.3     1  UNL1       -0.3794
     13 H          15.6908   67.4747   -5.2764 H       1  UNL1        0.2106
     14 H          15.1193   68.3241   -3.2691 H       1  UNL1        0.2105
     15 N          17.6885   70.5386   -6.9245 N.ar    1  UNL1       -0.2551
     16 C          16.9263   70.4916   -8.0316 C.ar    1  UNL1        0.3323
     17 N          17.4816   70.5319   -9.2572 N.ar    1  UNL1       -0.2743
     18 C          18.8203   70.6225   -9.3932 C.ar    1  UNL1        0.2626
     19 C          19.6346   70.6739   -8.2363 C.ar    1  UNL1        0.0795
     20 C          19.0506   70.6360   -7.0201 C.ar    1  UNL1        0.0869
     21 O          15.7179   70.4101   -7.9241 O.2     1  UNL1       -0.2464
     22 O          19.3241   70.6595  -10.5019 O.2     1  UNL1       -0.2670
     23 H          16.9176   70.4958  -10.0451 H       1  UNL1        0.1734
     24 O          21.5798   71.7799   -4.6509 O.3     1  UNL1       -0.2703
     25 P          22.6895   72.7628   -5.2798 P.3     1  UNL1        0.2208
     26 O          24.0318   72.6935   -4.3925 O.3     1  UNL1       -0.4371
     27 O          22.9926   72.3426   -6.6654 O.2     1  UNL1       -0.5170
     28 O          22.1276   74.2717   -5.2869 O.3     1  UNL1       -0.2865
     29 C          20.8440   74.6220   -5.8074 C.3     1  UNL1        0.2611
     30 C          20.9985   75.7446   -6.8363 C.3     1  UNL1        0.1582
     31 C          21.5738   76.9842   -6.1441 C.3     1  UNL1        0.1625
     32 C          20.6550   77.3812   -4.9854 C.3     1  UNL1        0.1686
     33 C          20.5138   76.1951   -4.0276 C.3     1  UNL1        0.1760
     34 O          21.6528   78.0606   -7.0813 O.3     1  UNL1       -0.3801
     35 O          19.3696   77.7390   -5.4960 O.3     1  UNL1       -0.3794
     36 O          20.0033   75.0670   -4.7409 O.3     1  UNL1       -0.3263
     37 H          22.0100   78.8791   -6.7104 H       1  UNL1        0.2105
     38 H          18.7343   78.0016   -4.8153 H       1  UNL1        0.2105
     39 C          23.2203   75.6092   -7.8278 C.2     1  UNL1        0.2231
     40 C          24.1559   75.1642   -8.9210 C.3     1  UNL1        0.0946
     41 N          21.9080   75.3116   -7.9002 N.am    1  UNL1       -0.2994
     42 O          23.6479   76.2363   -6.8811 O.2     1  UNL1       -0.2751
     43 H          21.5655   74.8111   -8.6573 H       1  UNL1        0.1496
     44 C          19.5498   76.5638   -2.8984 C.3     1  UNL1        0.1693
     45 O          18.2191   76.1965   -3.2681 O.3     1  UNL1       -0.3794
     46 H          17.5532   76.4015   -2.5976 H       1  UNL1        0.2105
@<TRIPOS>BOND
     1    29    30    1
     2    30    41    1
     3    30    31    1
     4    31    34    1
     5    31    32    1
     6    32    35    1
     7    32    33    1
     8    33    36    1
     9    33    44    1
    10    39    40    1
    11    39    42    2
    12    39    41   am
    13    41    43    1
    14    29    28    1
    15    34    37    1
    16    35    38    1
    17    29    36    1
    18    44    45    1
    19    45    46    1
    20    15     6    1
    21    15    16   ar
    22    16    21    2
    23    16    17   ar
    24    17    23    1
    25    17    18   ar
    26    18    19   ar
    27    19    20   ar
    28    15    20   ar
    29    18    22    2
    30     6     7    1
    31     6    11    1
    32     7     9    1
    33     7     8    1
    34     8    13    1
    35     9    10    1
    36     9    12    1
    37    10     5    1
    38    10    11    1
    39    12    14    1
    40     5     4    1
    41     4     1    1
    42     1     2    1
    43     1    24    1
    44     1     3    2
    45    24    25    1
    46    28    25    1
    47    25    26    1
    48    25    27    2
@<TRIPOS>MOLECULE
UD2
 46 48 0 0 0
SMALL
GASTEIGER

@<TRIPOS>ATOM
      1 P          21.8208   72.4561   -6.0796 P.3     1  UNL1        0.2189
      2 O          23.0767   73.0999   -6.8540 O.3     1  UNL1       -0.4371
      3 O          20.7485   73.4673   -5.9512 O.2     1  UNL1       -0.5170
      4 O          21.2693   71.1914   -6.9104 O.3     1  UNL1       -0.3112
      5 C          20.5763   71.3203   -8.1532 C.3     1  UNL1        0.1811
      6 C          17.4113   70.1304   -6.9270 C.3     1  UNL1        0.2383
      7 C          17.0420   71.1473   -8.0368 C.3     1  UNL1        0.1895
      8 O          15.8161   70.7834   -8.6745 O.3     1  UNL1       -0.3779
      9 C          18.2350   71.0098   -9.0141 C.3     1  UNL1        0.1713
     10 C          19.3566   70.3955   -8.1550 C.3     1  UNL1        0.1764
     11 O          18.8459   70.2576   -6.8195 O.3     1  UNL1       -0.3308
     12 O          17.8972   70.1381  -10.0942 O.3     1  UNL1       -0.3794
     13 H          15.5423   71.3897   -9.3760 H       1  UNL1        0.2106
     14 H          17.1571   70.4475  -10.6337 H       1  UNL1        0.2105
     15 N          16.7650   70.4893   -5.6627 N.ar    1  UNL1       -0.2551
     16 C          16.4521   69.5264   -4.7774 C.ar    1  UNL1        0.3323
     17 N          15.8575   69.8273   -3.6077 N.ar    1  UNL1       -0.2743
     18 C          15.5666   71.1087   -3.3041 C.ar    1  UNL1        0.2626
     19 C          15.8913   72.1325   -4.2264 C.ar    1  UNL1        0.0795
     20 C          16.4909   71.8024   -5.3896 C.ar    1  UNL1        0.0869
     21 O          16.7088   68.3668   -5.0377 O.2     1  UNL1       -0.2464
     22 O          15.0289   71.3824   -2.2457 O.2     1  UNL1       -0.2670
     23 H          15.6377   69.1207   -2.9812 H       1  UNL1        0.1734
     24 O          22.2831   71.9744   -4.6142 O.3     1  UNL1       -0.2703
     25 P          23.3490   72.5261   -3.5407 P.3     1  UNL1        0.2208
     26 O          23.6728   71.3722   -2.4649 O.3     1  UNL1       -0.4371
     27 O          24.5951   72.9142   -4.2370 O.2     1  UNL1       -0.5170
     28 O          22.7346   73.8082   -2.7847 O.3     1  UNL1       -0.2865
     29 C          21.7450   73.7068   -1.7591 C.3     1  UNL1        0.2611
     30 C          22.3118   72.9152   -0.5782 C.3     1  UNL1        0.1582
     31 C          22.6485   71.4945   -1.0415 C.3     1  UNL1        0.1625
     32 C          21.3890   70.8469   -1.6235 C.3     1  UNL1        0.1686
     33 C          20.8577   71.7185   -2.7645 C.3     1  UNL1        0.1760
     34 O          23.1097   70.7261    0.0721 O.3     1  UNL1       -0.3801
     35 O          20.3944   70.7356   -0.6038 O.3     1  UNL1       -0.3794
     36 O          20.5937   73.0343   -2.2735 O.3     1  UNL1       -0.3263
     37 H          23.3423   69.8139   -0.1494 H       1  UNL1        0.2105
     38 H          19.5669   70.3335   -0.9028 H       1  UNL1        0.2105
     39 C          23.7576   73.6573    1.2375 C.2     1  UNL1        0.2231
     40 C          25.0063   74.3312    1.7428 C.3     1  UNL1        0.0946
     41 N          23.5265   73.5710   -0.0874 N.am    1  UNL1       -0.2994
     42 O          22.9589   73.1918    2.0233 O.2     1  UNL1       -0.2751
     43 H          24.1643   73.9439   -0.7160 H       1  UNL1        0.1496
     44 C          19.5656   71.1094   -3.3121 C.3     1  UNL1        0.1693
     45 O          19.7410   69.7028   -3.4942 O.3     1  UNL1       -0.3794
     46 H          18.9598   69.2499   -3.8400 H       1  UNL1        0.2105
@<TRIPOS>BOND
     1    29    30    1
     2    30    41    1
     3    30    31    1
     4    31    34    1
     5    31    32    1
     6    32    35    1
     7    32    33    1
     8    33    36    1
     9    33    44    1
    10    39    40    1
    11    39    42    2
    12    39    41   am
    13    41    43    1
    14    29    28    1
    15    34    37    1
    16    35    38    1
    17    29    36    1
    18    44    45    1
    19    45    46    1
    20    15     6    1
    21    15    16   ar
    22    16    21    2
    23    16    17   ar
    24    17    23    1
    25    17    18   ar
    26    18    19   ar
    27    19    20   ar
    28    15    20   ar
    29    18    22    2
    30     6     7    1
    31     6    11    1
    32     7     9    1
    33     7     8    1
    34     8    13    1
    35     9    10    1
    36     9    12    1
    37    10     5    1
    38    10    11    1
    39    12    14    1
    40     5     4    1
    41     4     1    1
    42     1     2    1
    43     1    24    1
    44     1     3    2
    45    24    25    1
    46    28    25    1
    47    25    26    1
    48    25    27    2
@<TRIPOS>MOLECULE
UD2
 46 48 0 0 0
SMALL
GASTEIGER

@<TRIPOS>ATOM
      1 P          16.5504   69.3499   -3.1026 P.3     1  UNL1        0.2189
      2 O          16.4881   68.8124   -4.6188 O.3     1  UNL1       -0.4371
      3 O          17.2934   68.3822   -2.2657 O.2     1  UNL1       -0.5170
      4 O          17.2998   70.7750   -3.0690 O.3     1  UNL1       -0.3112
      5 C          18.3987   71.0548   -2.1998 C.3     1  UNL1        0.1811
      6 C          20.1203   71.8285   -5.2615 C.3     1  UNL1        0.2383
      7 C          19.4238   73.1537   -4.8605 C.3     1  UNL1        0.1895
      8 O          20.1807   74.2820   -5.3030 O.3     1  UNL1       -0.3779
      9 C          19.4187   73.0637   -3.3148 C.3     1  UNL1        0.1713
     10 C          19.5851   71.5599   -3.0246 C.3     1  UNL1        0.1764
     11 O          19.6245   70.8817   -4.2903 O.3     1  UNL1       -0.3308
     12 O          20.5123   73.8030   -2.7685 O.3     1  UNL1       -0.3794
     13 H          19.7853   75.1346   -5.0764 H       1  UNL1        0.2106
     14 H          20.4896   74.7479   -2.9712 H       1  UNL1        0.2105
     15 N          19.7309   71.4304   -6.6161 N.ar    1  UNL1       -0.2551
     16 C          20.4858   71.8058   -7.6640 C.ar    1  UNL1        0.3323
     17 N          20.1516   71.4544   -8.9198 N.ar    1  UNL1       -0.2743
     18 C          19.0477   70.7137   -9.1464 C.ar    1  UNL1        0.2626
     19 C          18.2444   70.3108   -8.0525 C.ar    1  UNL1        0.0795
     20 C          18.6056   70.6738   -6.8038 C.ar    1  UNL1        0.0869
     21 O          21.4840   72.4737   -7.4745 O.2     1  UNL1       -0.2464
     22 O          18.7444   70.3947  -10.2825 O.2     1  UNL1       -0.2670
     23 H          20.7064   71.7345   -9.6641 H       1  UNL1        0.1734
     24 O          15.0545   69.5173   -2.5304 O.3     1  UNL1       -0.2703
     25 P          14.4318   69.6506   -1.0514 P.3     1  UNL1        0.2208
     26 O          15.1084   68.5550   -0.0841 O.3     1  UNL1       -0.4371
     27 O          14.6995   71.0063   -0.5234 O.2     1  UNL1       -0.5170
     28 O          12.8420   69.4028   -1.1142 O.3     1  UNL1       -0.2865
     29 C          12.0773   68.9653    0.0106 C.3     1  UNL1        0.2611
     30 C          10.7227   68.4363   -0.4667 C.3     1  UNL1        0.1582
     31 C           9.9491   69.5734   -1.1412 C.3     1  UNL1        0.1625
     32 C           9.8035   70.7338   -0.1529 C.3     1  UNL1        0.1686
     33 C          11.1940   71.1744    0.3124 C.3     1  UNL1        0.1760
     34 O           8.6534   69.1072   -1.5247 O.3     1  UNL1       -0.3801
     35 O           9.0349   70.3081    0.9737 O.3     1  UNL1       -0.3794
     36 O          11.8715   70.0630    0.9022 O.3     1  UNL1       -0.3263
     37 H           8.1078   69.7768   -1.9596 H       1  UNL1        0.2105
     38 H           8.9031   70.9944    1.6427 H       1  UNL1        0.2105
     39 C          10.3903   66.1369   -1.2016 C.2     1  UNL1        0.2231
     40 C          10.6053   65.0195   -2.1884 C.3     1  UNL1        0.0946
     41 N          10.9326   67.3498   -1.4270 N.am    1  UNL1       -0.2994
     42 O           9.7286   65.9453   -0.2028 O.2     1  UNL1       -0.2751
     43 H          11.4625   67.5032   -2.2249 H       1  UNL1        0.1496
     44 C          11.0547   72.2940    1.3456 C.3     1  UNL1        0.1693
     45 O          11.2723   71.7646    2.6550 O.3     1  UNL1       -0.3794
     46 H          11.1993   72.4202    3.3621 H       1  UNL1        0.2105
@<TRIPOS>BOND
     1    29    30    1
     2    30    41    1
     3    30    31    1
     4    31    34    1
     5    31    32    1
     6    32    35    1
     7    32    33    1
     8    33    36    1
     9    33    44    1
    10    39    40    1
    11    39    42    2
    12    39    41   am
    13    41    43    1
    14    29    28    1
    15    34    37    1
    16    35    38    1
    17    29    36    1
    18    44    45    1
    19    45    46    1
    20    15     6    1
    21    15    16   ar
    22    16    21    2
    23    16    17   ar
    24    17    23    1
    25    17    18   ar
    26    18    19   ar
    27    19    20   ar
    28    15    20   ar
    29    18    22    2
    30     6     7    1
    31     6    11    1
    32     7     9    1
    33     7     8    1
    34     8    13    1
    35     9    10    1
    36     9    12    1
    37    10     5    1
    38    10    11    1
    39    12    14    1
    40     5     4    1
    41     4     1    1
    42     1     2    1
    43     1    24    1
    44     1     3    2
    45    24    25    1
    46    28    25    1
    47    25    26    1
    48    25    27    2
@<TRIPOS>MOLECULE
UD2
 46 48 0 0 0
SMALL
GASTEIGER

@<TRIPOS>ATOM
      1 P          22.7215   72.4650   -3.5044 P.3     1  UNL1        0.2189
      2 O          24.1409   72.5187   -4.2618 O.3     1  UNL1       -0.4371
      3 O          22.3927   71.0617   -3.1702 O.2     1  UNL1       -0.5170
      4 O          22.8022   73.3343   -2.1511 O.3     1  UNL1       -0.3112
      5 C          22.4014   72.8275   -0.8768 C.3     1  UNL1        0.1811
      6 C          24.1370   72.6543    2.2687 C.3     1  UNL1        0.2383
      7 C          23.7364   71.1886    1.9635 C.3     1  UNL1        0.1895
      8 O          24.6897   70.2750    2.5097 O.3     1  UNL1       -0.3779
      9 C          23.7667   71.1587    0.4157 C.3     1  UNL1        0.1713
     10 C          23.6362   72.6387    0.0079 C.3     1  UNL1        0.1764
     11 O          23.4942   73.4042    1.2151 O.3     1  UNL1       -0.3308
     12 O          25.0051   70.6189   -0.0488 O.3     1  UNL1       -0.3794
     13 H          24.4825   69.3451    2.3454 H       1  UNL1        0.2106
     14 H          25.1665   69.7072    0.2293 H       1  UNL1        0.2105
     15 N          23.6288   73.0657    3.5793 N.ar    1  UNL1       -0.2551
     16 C          22.4680   72.5599    4.0326 C.ar    1  UNL1        0.3323
     17 N          21.9771   72.9204    5.2331 N.ar    1  UNL1       -0.2743
     18 C          22.6485   73.7991    6.0049 C.ar    1  UNL1        0.2626
     19 C          23.8722   74.3386    5.5406 C.ar    1  UNL1        0.0795
     20 C          24.3429   73.9563    4.3349 C.ar    1  UNL1        0.0869
     21 O          21.8520   71.7665    3.3475 O.2     1  UNL1       -0.2464
     22 O          22.2055   74.1258    7.0919 O.2     1  UNL1       -0.2670
     23 H          21.1380   72.5470    5.5443 H       1  UNL1        0.1734
     24 O          21.5781   73.0707   -4.4631 O.3     1  UNL1       -0.2703
     25 P          21.1124   72.7706   -5.9751 P.3     1  UNL1        0.2208
     26 O          21.2238   74.1194   -6.8481 O.3     1  UNL1       -0.4371
     27 O          21.9842   71.7299   -6.5627 O.2     1  UNL1       -0.5170
     28 O          19.5867   72.2558   -5.9744 O.3     1  UNL1       -0.2865
     29 C          19.1538   71.1049   -5.2469 C.3     1  UNL1        0.2611
     30 C          18.0374   70.4005   -6.0215 C.3     1  UNL1        0.1582
     31 C          16.8402   71.3476   -6.1490 C.3     1  UNL1        0.1625
     32 C          16.3929   71.7790   -4.7497 C.3     1  UNL1        0.1686
     33 C          17.5731   72.4304   -4.0239 C.3     1  UNL1        0.1760
     34 O          15.7657   70.6725   -6.8070 O.3     1  UNL1       -0.3801
     35 O          15.9523   70.6353   -4.0153 O.3     1  UNL1       -0.3794
     36 O          18.6629   71.5080   -3.9667 O.3     1  UNL1       -0.3263
     37 H          14.9732   71.2146   -6.9226 H       1  UNL1        0.2105
     38 H          15.6543   70.8349   -3.1168 H       1  UNL1        0.2105
     39 C          18.3026   70.8660   -8.3986 C.2     1  UNL1        0.2231
     40 C          18.7993   70.4959   -9.7715 C.3     1  UNL1        0.0946
     41 N          18.5206   70.0396   -7.3567 N.am    1  UNL1       -0.2994
     42 O          17.7056   71.9088   -8.2301 O.2     1  UNL1       -0.2751
     43 H          18.9970   69.2053   -7.4912 H       1  UNL1        0.1496
     44 C          17.1510   72.8105   -2.6034 C.3     1  UNL1        0.1693
     45 O          18.0807   72.2621   -1.6667 O.3     1  UNL1       -0.3794
     46 H          17.8749   72.4637   -0.7436 H       1  UNL1        0.2105
@<TRIPOS>BOND
     1    29    30    1
     2    30    41    1
     3    30    31    1
     4    31    34    1
     5    31    32    1
     6    32    35    1
     7    32    33    1
     8    33    36    1
     9    33    44    1
    10    39    40    1
    11    39    42    2
    12    39    41   am
    13    41    43    1
    14    29    28    1
    15    34    37    1
    16    35    38    1
    17    29    36    1
    18    44    45    1
    19    45    46    1
    20    15     6    1
    21    15    16   ar
    22    16    21    2
    23    16    17   ar
    24    17    23    1
    25    17    18   ar
    26    18    19   ar
    27    19    20   ar
    28    15    20   ar
    29    18    22    2
    30     6     7    1
    31     6    11    1
    32     7     9    1
    33     7     8    1
    34     8    13    1
    35     9    10    1
    36     9    12    1
    37    10     5    1
    38    10    11    1
    39    12    14    1
    40     5     4    1
    41     4     1    1
    42     1     2    1
    43     1    24    1
    44     1     3    2
    45    24    25    1
    46    28    25    1
    47    25    26    1
    48    25    27    2
@<TRIPOS>MOLECULE
UD2
 46 48 0 0 0
SMALL
GASTEIGER

@<TRIPOS>ATOM
      1 P          20.3907   70.6745   -3.1692 P.3     1  UNL1        0.2189
      2 O          20.5726   70.2517   -1.6266 O.3     1  UNL1       -0.4371
      3 O          20.1347   69.4673   -3.9853 O.2     1  UNL1       -0.5170
      4 O          19.1462   71.6877   -3.3045 O.3     1  UNL1       -0.3112
      5 C          17.9043   71.4883   -2.6266 C.3     1  UNL1        0.1811
      6 C          16.7008   70.5515   -5.8840 C.3     1  UNL1        0.2383
      7 C          16.8893   69.2069   -5.1367 C.3     1  UNL1        0.1895
      8 O          15.9480   68.2334   -5.5929 O.3     1  UNL1       -0.3779
      9 C          16.6021   69.6075   -3.6688 C.3     1  UNL1        0.1713
     10 C          16.8188   71.1326   -3.6455 C.3     1  UNL1        0.1764
     11 O          17.2370   71.5255   -4.9624 O.3     1  UNL1       -0.3308
     12 O          15.2544   69.2879   -3.3190 O.3     1  UNL1       -0.3794
     13 H          16.0264   67.3749   -5.1554 H       1  UNL1        0.2106
     14 H          15.0459   68.3456   -3.3740 H       1  UNL1        0.2105
     15 N          17.4579   70.5554   -7.1377 N.ar    1  UNL1       -0.2551
     16 C          16.8024   70.5749   -8.3119 C.ar    1  UNL1        0.3323
     17 N          17.4726   70.5788   -9.4795 N.ar    1  UNL1       -0.2743
     18 C          18.8210   70.5648   -9.4881 C.ar    1  UNL1        0.2626
     19 C          19.5238   70.5452   -8.2593 C.ar    1  UNL1        0.0795
     20 C          18.8264   70.5461   -7.1039 C.ar    1  UNL1        0.0869
     21 O          15.5866   70.5879   -8.3193 O.2     1  UNL1       -0.2464
     22 O          19.4288   70.5687  -10.5441 O.2     1  UNL1       -0.2670
     23 H          16.9844   70.5917  -10.3171 H       1  UNL1        0.1734
     24 O          21.7312   71.3998   -3.6889 O.3     1  UNL1       -0.2703
     25 P          22.7628   72.4466   -3.0310 P.3     1  UNL1        0.2208
     26 O          24.2553   72.1213   -3.5412 O.3     1  UNL1       -0.4371
     27 O          22.3937   73.8218   -3.4322 O.2     1  UNL1       -0.5170
     28 O          22.7044   72.3212   -1.4267 O.3     1  UNL1       -0.2865
     29 C          22.7453   73.4528   -0.5555 C.3     1  UNL1        0.2611
     30 C          22.8436   72.9772    0.8960 C.3     1  UNL1        0.1582
     31 C          21.5913   72.1669    1.2446 C.3     1  UNL1        0.1625
     32 C          20.3520   73.0321    1.0000 C.3     1  UNL1        0.1686
     33 C          20.3497   73.5057   -0.4559 C.3     1  UNL1        0.1760
     34 O          21.6403   71.7807    2.6200 O.3     1  UNL1       -0.3801
     35 O          20.3804   74.1643    1.8710 O.3     1  UNL1       -0.3794
     36 O          21.5549   74.2256   -0.7228 O.3     1  UNL1       -0.3263
     37 H          20.8770   71.2626    2.9101 H       1  UNL1        0.2105
     38 H          19.6235   74.7583    1.7698 H       1  UNL1        0.2105
     39 C          24.7941   72.2474    2.1612 C.2     1  UNL1        0.2231
     40 C          26.0157   71.3819    2.3261 C.3     1  UNL1        0.0946
     41 N          24.0318   72.1351    1.0556 N.am    1  UNL1       -0.2994
     42 O          24.4957   73.0465    3.0241 O.2     1  UNL1       -0.2751
     43 H          24.2706   71.4970    0.3650 H       1  UNL1        0.1496
     44 C          19.1461   74.4198   -0.6928 C.3     1  UNL1        0.1693
     45 O          18.0373   73.9591    0.0823 O.3     1  UNL1       -0.3794
     46 H          17.2373   74.4927   -0.0188 H       1  UNL1        0.2105
@<TRIPOS>BOND
     1    29    30    1
     2    30    41    1
     3    30    31    1
     4    31    34    1
     5    31    32    1
     6    32    35    1
     7    32    33    1
     8    33    36    1
     9    33    44    1
    10    39    40    1
    11    39    42    2
    12    39    41   am
    13    41    43    1
    14    29    28    1
    15    34    37    1
    16    35    38    1
    17    29    36    1
    18    44    45    1
    19    45    46    1
    20    15     6    1
    21    15    16   ar
    22    16    21    2
    23    16    17   ar
    24    17    23    1
    25    17    18   ar
    26    18    19   ar
    27    19    20   ar
    28    15    20   ar
    29    18    22    2
    30     6     7    1
    31     6    11    1
    32     7     9    1
    33     7     8    1
    34     8    13    1
    35     9    10    1
    36     9    12    1
    37    10     5    1
    38    10    11    1
    39    12    14    1
    40     5     4    1
    41     4     1    1
    42     1     2    1
    43     1    24    1
    44     1     3    2
    45    24    25    1
    46    28    25    1
    47    25    26    1
    48    25    27    2
@<TRIPOS>MOLECULE
UD2
 46 48 0 0 0
SMALL
GASTEIGER

@<TRIPOS>ATOM
      1 P          22.2178   71.6725   -3.0756 P.3     1  UNL1        0.2189
      2 O          23.7589   71.6652   -3.5408 O.3     1  UNL1       -0.4371
      3 O          21.6582   70.3085   -3.1986 O.2     1  UNL1       -0.5170
      4 O          22.1225   72.1555   -1.5422 O.3     1  UNL1       -0.3112
      5 C          23.2412   72.6729   -0.8195 C.3     1  UNL1        0.1811
      6 C          24.8617   71.8031    2.2715 C.3     1  UNL1        0.2383
      7 C          23.5007   72.4071    2.7015 C.3     1  UNL1        0.1895
      8 O          23.0413   71.8147    3.9180 O.3     1  UNL1       -0.3779
      9 C          22.5831   72.0179    1.5166 C.3     1  UNL1        0.1713
     10 C          23.5604   71.7469    0.3569 C.3     1  UNL1        0.1764
     11 O          24.8856   72.0133    0.8429 O.3     1  UNL1       -0.3308
     12 O          21.8378   70.8399    1.8289 O.3     1  UNL1       -0.3794
     13 H          22.1934   72.1603    4.2284 H       1  UNL1        0.2106
     14 H          21.2489   70.9361    2.5894 H       1  UNL1        0.2105
     15 N          25.9682   72.5134    2.9165 N.ar    1  UNL1       -0.2551
     16 C          27.1848   71.9428    2.9710 C.ar    1  UNL1        0.3323
     17 N          28.2198   72.5726    3.5578 N.ar    1  UNL1       -0.2743
     18 C          28.0504   73.7948    4.1018 C.ar    1  UNL1        0.2626
     19 C          26.7753   74.4078    4.0507 C.ar    1  UNL1        0.0795
     20 C          25.7566   73.7552    3.4525 C.ar    1  UNL1        0.0869
     21 O          27.3522   70.8411    2.4844 O.2     1  UNL1       -0.2464
     22 O          28.9864   74.3661    4.6329 O.2     1  UNL1       -0.2670
     23 H          29.0901   72.1463    3.5895 H       1  UNL1        0.1734
     24 O          21.3801   72.6828   -4.0088 O.3     1  UNL1       -0.2703
     25 P          20.8748   72.6342   -5.5370 P.3     1  UNL1        0.2208
     26 O          20.8436   74.1276   -6.1391 O.3     1  UNL1       -0.4371
     27 O          21.7989   71.8000   -6.3360 O.2     1  UNL1       -0.5170
     28 O          19.3952   72.0015   -5.5930 O.3     1  UNL1       -0.2865
     29 C          19.1521   70.5955   -5.6661 C.3     1  UNL1        0.2611
     30 C          18.0154   70.3239   -6.6545 C.3     1  UNL1        0.1582
     31 C          16.7351   70.9913   -6.1428 C.3     1  UNL1        0.1625
     32 C          16.4228   70.4637   -4.7398 C.3     1  UNL1        0.1686
     33 C          17.6212   70.7301   -3.8250 C.3     1  UNL1        0.1760
     34 O          15.6513   70.6814   -7.0218 O.3     1  UNL1       -0.3801
     35 O          16.1723   69.0585   -4.8027 O.3     1  UNL1       -0.3794
     36 O          18.7848   70.1082   -4.3738 O.3     1  UNL1       -0.3263
     37 H          14.8074   71.0732   -6.7583 H       1  UNL1        0.2105
     38 H          15.9676   68.6561   -3.9471 H       1  UNL1        0.2105
     39 C          18.8953   70.0779   -8.9134 C.2     1  UNL1        0.2231
     40 C          19.2547   70.6445  -10.2619 C.3     1  UNL1        0.0946
     41 N          18.3650   70.8759   -7.9658 N.am    1  UNL1       -0.2994
     42 O          19.0833   68.9022   -8.6796 O.2     1  UNL1       -0.2751
     43 H          18.2154   71.8161   -8.1520 H       1  UNL1        0.1496
     44 C          17.3407   70.1525   -2.4364 C.3     1  UNL1        0.1693
     45 O          17.8787   68.8313   -2.3516 O.3     1  UNL1       -0.3794
     46 H          17.7375   68.4025   -1.4965 H       1  UNL1        0.2105
@<TRIPOS>BOND
     1    29    30    1
     2    30    41    1
     3    30    31    1
     4    31    34    1
     5    31    32    1
     6    32    35    1
     7    32    33    1
     8    33    36    1
     9    33    44    1
    10    39    40    1
    11    39    42    2
    12    39    41   am
    13    41    43    1
    14    29    28    1
    15    34    37    1
    16    35    38    1
    17    29    36    1
    18    44    45    1
    19    45    46    1
    20    15     6    1
    21    15    16   ar
    22    16    21    2
    23    16    17   ar
    24    17    23    1
    25    17    18   ar
    26    18    19   ar
    27    19    20   ar
    28    15    20   ar
    29    18    22    2
    30     6     7    1
    31     6    11    1
    32     7     9    1
    33     7     8    1
    34     8    13    1
    35     9    10    1
    36     9    12    1
    37    10     5    1
    38    10    11    1
    39    12    14    1
    40     5     4    1
    41     4     1    1
    42     1     2    1
    43     1    24    1
    44     1     3    2
    45    24    25    1
    46    28    25    1
    47    25    26    1
    48    25    27    2
@<TRIPOS>MOLECULE
UD2
 46 48 0 0 0
SMALL
GASTEIGER

@<TRIPOS>ATOM
      1 P          20.7720   71.1459   -2.3752 P.3     1  UNL1        0.2189
      2 O          20.6984   70.3510   -0.9773 O.3     1  UNL1       -0.4371
      3 O          21.8374   70.5622   -3.2197 O.2     1  UNL1       -0.5170
      4 O          19.3576   71.0254   -3.1360 O.3     1  UNL1       -0.3112
      5 C          18.1022   71.1796   -2.4715 C.3     1  UNL1        0.1811
      6 C          16.7443   70.6094   -5.7529 C.3     1  UNL1        0.2383
      7 C          16.8200   69.2002   -5.1122 C.3     1  UNL1        0.1895
      8 O          15.7805   68.3565   -5.6114 O.3     1  UNL1       -0.3779
      9 C          16.6043   69.5133   -3.6112 C.3     1  UNL1        0.1713
     10 C          16.9659   71.0054   -3.4821 C.3     1  UNL1        0.1764
     11 O          17.3909   71.4563   -4.7780 O.3     1  UNL1       -0.3308
     12 O          15.2402   69.2955   -3.2472 O.3     1  UNL1       -0.3794
     13 H          15.7861   67.4636   -5.2407 H       1  UNL1        0.2106
     14 H          14.9416   68.3837   -3.3652 H       1  UNL1        0.2105
     15 N          17.4709   70.6377   -7.0242 N.ar    1  UNL1       -0.2551
     16 C          16.7922   70.5481   -8.1818 C.ar    1  UNL1        0.3323
     17 N          17.4341   70.5713   -9.3649 N.ar    1  UNL1       -0.2743
     18 C          18.7770   70.6874   -9.4063 C.ar    1  UNL1        0.2626
     19 C          19.5040   70.7837   -8.1954 C.ar    1  UNL1        0.0795
     20 C          18.8342   70.7620   -7.0239 C.ar    1  UNL1        0.0869
     21 O          15.5811   70.4432   -8.1597 O.2     1  UNL1       -0.2464
     22 O          19.3592   70.7089  -10.4764 O.2     1  UNL1       -0.2670
     23 H          16.9295   70.5044  -10.1902 H       1  UNL1        0.1734
     24 O          21.0990   72.6974   -2.0941 O.3     1  UNL1       -0.2703
     25 P          22.3373   73.4743   -1.4189 P.3     1  UNL1        0.2208
     26 O          23.6960   72.6519   -1.6857 O.3     1  UNL1       -0.4371
     27 O          22.4546   74.8249   -2.0110 O.2     1  UNL1       -0.5170
     28 O          22.0898   73.6027    0.1669 O.3     1  UNL1       -0.2865
     29 C          21.7169   72.4951    0.9888 C.3     1  UNL1        0.2611
     30 C          21.0543   73.0089    2.2693 C.3     1  UNL1        0.1582
     31 C          22.0648   73.8511    3.0542 C.3     1  UNL1        0.1625
     32 C          23.3056   73.0019    3.3432 C.3     1  UNL1        0.1686
     33 C          23.8816   72.4883    2.0209 C.3     1  UNL1        0.1760
     34 O          21.4779   74.2742    4.2870 O.3     1  UNL1       -0.3801
     35 O          22.9443   71.8940    4.1698 O.3     1  UNL1       -0.3794
     36 O          22.8819   71.7396    1.3266 O.3     1  UNL1       -0.3263
     37 H          22.0632   74.8139    4.8360 H       1  UNL1        0.2105
     38 H          23.6836   71.3111    4.3927 H       1  UNL1        0.2105
     39 C          20.0315   75.1671    1.7854 C.2     1  UNL1        0.2231
     40 C          18.8391   76.0155    1.4290 C.3     1  UNL1        0.0946
     41 N          19.8939   73.8336    1.9229 N.am    1  UNL1       -0.2994
     42 O          21.1169   75.6841    1.9490 O.2     1  UNL1       -0.2751
     43 H          19.0261   73.4199    1.7931 H       1  UNL1        0.1496
     44 C          25.0869   71.5899    2.3047 C.3     1  UNL1        0.1693
     45 O          24.6477   70.2396    2.4671 O.3     1  UNL1       -0.3794
     46 H          25.3609   69.6128    2.6501 H       1  UNL1        0.2105
@<TRIPOS>BOND
     1    29    30    1
     2    30    41    1
     3    30    31    1
     4    31    34    1
     5    31    32    1
     6    32    35    1
     7    32    33    1
     8    33    36    1
     9    33    44    1
    10    39    40    1
    11    39    42    2
    12    39    41   am
    13    41    43    1
    14    29    28    1
    15    34    37    1
    16    35    38    1
    17    29    36    1
    18    44    45    1
    19    45    46    1
    20    15     6    1
    21    15    16   ar
    22    16    21    2
    23    16    17   ar
    24    17    23    1
    25    17    18   ar
    26    18    19   ar
    27    19    20   ar
    28    15    20   ar
    29    18    22    2
    30     6     7    1
    31     6    11    1
    32     7     9    1
    33     7     8    1
    34     8    13    1
    35     9    10    1
    36     9    12    1
    37    10     5    1
    38    10    11    1
    39    12    14    1
    40     5     4    1
    41     4     1    1
    42     1     2    1
    43     1    24    1
    44     1     3    2
    45    24    25    1
    46    28    25    1
    47    25    26    1
    48    25    27    2
@<TRIPOS>MOLECULE
UD2
 46 48 0 0 0
SMALL
GASTEIGER

@<TRIPOS>ATOM
      1 P          20.9615   71.1563   -3.6320 P.3     1  UNL1        0.2189
      2 O          21.9847   70.2938   -2.7372 O.3     1  UNL1       -0.4371
      3 O          20.7560   70.4839   -4.9338 O.2     1  UNL1       -0.5170
      4 O          19.5514   71.2814   -2.8641 O.3     1  UNL1       -0.3112
      5 C          18.7279   72.4468   -2.9363 C.3     1  UNL1        0.1811
      6 C          17.0997   71.3546   -5.9517 C.3     1  UNL1        0.2383
      7 C          17.1527   70.0899   -5.0574 C.3     1  UNL1        0.1895
      8 O          16.0375   69.2349   -5.3165 O.3     1  UNL1       -0.3779
      9 C          17.0667   70.6939   -3.6343 C.3     1  UNL1        0.1713
     10 C          17.5113   72.1574   -3.8189 C.3     1  UNL1        0.1764
     11 O          17.8595   72.3275   -5.2022 O.3     1  UNL1       -0.3308
     12 O          15.7247   70.6360   -3.1480 O.3     1  UNL1       -0.3794
     13 H          16.0264   68.4296   -4.7816 H       1  UNL1        0.2106
     14 H          15.3728   69.7391   -3.0685 H       1  UNL1        0.2105
     15 N          17.7289   71.0960   -7.2487 N.ar    1  UNL1       -0.2551
     16 C          16.9819   70.6515   -8.2749 C.ar    1  UNL1        0.3323
     17 N          17.5337   70.4053   -9.4779 N.ar    1  UNL1       -0.2743
     18 C          18.8532   70.6042   -9.6728 C.ar    1  UNL1        0.2626
     19 C          19.6512   71.0728   -8.6016 C.ar    1  UNL1        0.0795
     20 C          19.0708   71.3154   -7.4075 C.ar    1  UNL1        0.0869
     21 O          15.7908   70.4679   -8.1136 O.2     1  UNL1       -0.2464
     22 O          19.3538   70.3822  -10.7612 O.2     1  UNL1       -0.2670
     23 H          16.9809   70.0841  -10.2068 H       1  UNL1        0.1734
     24 O          21.5705   72.6267   -3.8773 O.3     1  UNL1       -0.2703
     25 P          22.2033   73.3758   -5.1545 P.3     1  UNL1        0.2208
     26 O          23.1068   72.3380   -5.9915 O.3     1  UNL1       -0.4371
     27 O          21.1150   73.8875   -6.0159 O.2     1  UNL1       -0.5170
     28 O          23.1176   74.6044   -4.6574 O.3     1  UNL1       -0.2865
     29 C          24.2065   74.4456   -3.7461 C.3     1  UNL1        0.2611
     30 C          23.8893   75.1753   -2.4385 C.3     1  UNL1        0.1582
     31 C          23.7360   76.6725   -2.7236 C.3     1  UNL1        0.1625
     32 C          25.0185   77.1900   -3.3808 C.3     1  UNL1        0.1686
     33 C          25.2921   76.3825   -4.6524 C.3     1  UNL1        0.1760
     34 O          23.5124   77.3714   -1.4969 O.3     1  UNL1       -0.3801
     35 O          26.1131   77.0409   -2.4749 O.3     1  UNL1       -0.3794
     36 O          25.3931   74.9960   -4.3218 O.3     1  UNL1       -0.3263
     37 H          23.4053   78.3266   -1.6028 H       1  UNL1        0.2105
     38 H          26.9603   77.3487   -2.8265 H       1  UNL1        0.2105
     39 C          22.6743   73.8121   -0.8250 C.2     1  UNL1        0.2231
     40 C          21.3911   73.2752   -0.2474 C.3     1  UNL1        0.0946
     41 N          22.6406   74.6533   -1.8773 N.am    1  UNL1       -0.2994
     42 O          23.7394   73.4873   -0.3430 O.2     1  UNL1       -0.2751
     43 H          21.7894   74.9125   -2.2636 H       1  UNL1        0.1496
     44 C          26.6039   76.8536   -5.2830 C.3     1  UNL1        0.1693
     45 O          26.7826   78.2482   -5.0268 O.3     1  UNL1       -0.3794
     46 H          27.5960   78.6158   -5.3985 H       1  UNL1        0.2105
@<TRIPOS>BOND
     1    29    30    1
     2    30    41    1
     3    30    31    1
     4    31    34    1
     5    31    32    1
     6    32    35    1
     7    32    33    1
     8    33    36    1
     9    33    44    1
    10    39    40    1
    11    39    42    2
    12    39    41   am
    13    41    43    1
    14    29    28    1
    15    34    37    1
    16    35    38    1
    17    29    36    1
    18    44    45    1
    19    45    46    1
    20    15     6    1
    21    15    16   ar
    22    16    21    2
    23    16    17   ar
    24    17    23    1
    25    17    18   ar
    26    18    19   ar
    27    19    20   ar
    28    15    20   ar
    29    18    22    2
    30     6     7    1
    31     6    11    1
    32     7     9    1
    33     7     8    1
    34     8    13    1
    35     9    10    1
    36     9    12    1
    37    10     5    1
    38    10    11    1
    39    12    14    1
    40     5     4    1
    41     4     1    1
    42     1     2    1
    43     1    24    1
    44     1     3    2
    45    24    25    1
    46    28    25    1
    47    25    26    1
    48    25    27    2
@<TRIPOS>MOLECULE
UD2
 46 48 0 0 0
SMALL
GASTEIGER

@<TRIPOS>ATOM
      1 P          20.6761   71.6064   -1.0164 P.3     1  UNL1        0.2189
      2 O          20.5024   73.0463   -0.3179 O.3     1  UNL1       -0.4371
      3 O          20.5057   70.5421   -0.0030 O.2     1  UNL1       -0.5170
      4 O          19.5657   71.4322   -2.1698 O.3     1  UNL1       -0.3112
      5 C          18.9200   70.1878   -2.4453 C.3     1  UNL1        0.1811
      6 C          17.1728   70.4338   -5.5796 C.3     1  UNL1        0.2383
      7 C          16.9495   68.9697   -5.1228 C.3     1  UNL1        0.1895
      8 O          15.6908   68.4771   -5.5864 O.3     1  UNL1       -0.3779
      9 C          16.9553   69.1057   -3.5804 C.3     1  UNL1        0.1713
     10 C          17.6901   70.4350   -3.3224 C.3     1  UNL1        0.1764
     11 O          18.0963   70.9541   -4.5987 O.3     1  UNL1       -0.3308
     12 O          15.6187   69.1672   -3.0800 O.3     1  UNL1       -0.3794
     13 H          15.5055   67.5646   -5.3265 H       1  UNL1        0.2106
     14 H          15.0913   68.3788   -3.2667 H       1  UNL1        0.2105
     15 N          17.7658   70.4718   -6.9182 N.ar    1  UNL1       -0.2551
     16 C          16.9683   70.4539   -8.0010 C.ar    1  UNL1        0.3323
     17 N          17.4859   70.4877   -9.2433 N.ar    1  UNL1       -0.2743
     18 C          18.8216   70.5423   -9.4207 C.ar    1  UNL1        0.2626
     19 C          19.6729   70.5627   -8.2898 C.ar    1  UNL1        0.0795
     20 C          19.1264   70.5322   -7.0561 C.ar    1  UNL1        0.0869
     21 O          15.7621   70.4050   -7.8561 O.2     1  UNL1       -0.2464
     22 O          19.2914   70.5733  -10.5445 O.2     1  UNL1       -0.2670
     23 H          16.8967   70.4729  -10.0132 H       1  UNL1        0.1734
     24 O          22.1455   71.4987   -1.6664 O.3     1  UNL1       -0.2703
     25 P          22.7249   71.6862   -3.1571 P.3     1  UNL1        0.2208
     26 O          24.2104   71.0690   -3.2365 O.3     1  UNL1       -0.4371
     27 O          21.8477   70.9844   -4.1195 O.2     1  UNL1       -0.5170
     28 O          22.7747   73.2541   -3.5202 O.3     1  UNL1       -0.2865
     29 C          23.7655   73.8235   -4.3777 C.3     1  UNL1        0.2611
     30 C          24.2344   75.1609   -3.7995 C.3     1  UNL1        0.1582
     31 C          23.0490   76.1299   -3.7509 C.3     1  UNL1        0.1625
     32 C          22.4667   76.2785   -5.1591 C.3     1  UNL1        0.1686
     33 C          22.0658   74.8977   -5.6849 C.3     1  UNL1        0.1760
     34 O          23.4936   77.4046   -3.2809 O.3     1  UNL1       -0.3801
     35 O          23.4485   76.8529   -6.0238 O.3     1  UNL1       -0.3794
     36 O          23.2062   74.0366   -5.6754 O.3     1  UNL1       -0.3263
     37 H          22.7929   78.0686   -3.2241 H       1  UNL1        0.2105
     38 H          23.1475   76.9755   -6.9350 H       1  UNL1        0.2105
     39 C          23.9269   75.0487   -1.3849 C.2     1  UNL1        0.2231
     40 C          24.4595   74.8354    0.0078 C.3     1  UNL1        0.0946
     41 N          24.7532   74.9536   -2.4452 N.am    1  UNL1       -0.2994
     42 O          22.7532   75.3064   -1.5528 O.2     1  UNL1       -0.2751
     43 H          25.6919   74.7485   -2.3114 H       1  UNL1        0.1496
     44 C          21.5383   75.0301   -7.1148 C.3     1  UNL1        0.1693
     45 O          21.2891   73.7301   -7.6537 O.3     1  UNL1       -0.3794
     46 H          20.9519   73.7375   -8.5600 H       1  UNL1        0.2105
@<TRIPOS>BOND
     1    29    30    1
     2    30    41    1
     3    30    31    1
     4    31    34    1
     5    31    32    1
     6    32    35    1
     7    32    33    1
     8    33    36    1
     9    33    44    1
    10    39    40    1
    11    39    42    2
    12    39    41   am
    13    41    43    1
    14    29    28    1
    15    34    37    1
    16    35    38    1
    17    29    36    1
    18    44    45    1
    19    45    46    1
    20    15     6    1
    21    15    16   ar
    22    16    21    2
    23    16    17   ar
    24    17    23    1
    25    17    18   ar
    26    18    19   ar
    27    19    20   ar
    28    15    20   ar
    29    18    22    2
    30     6     7    1
    31     6    11    1
    32     7     9    1
    33     7     8    1
    34     8    13    1
    35     9    10    1
    36     9    12    1
    37    10     5    1
    38    10    11    1
    39    12    14    1
    40     5     4    1
    41     4     1    1
    42     1     2    1
    43     1    24    1
    44     1     3    2
    45    24    25    1
    46    28    25    1
    47    25    26    1
    48    25    27    2
@<TRIPOS>MOLECULE
UD2
 46 48 0 0 0
SMALL
GASTEIGER

@<TRIPOS>ATOM
      1 P          21.7238   71.5621   -0.3002 P.3     1  UNL1        0.2189
      2 O          23.1691   70.8534   -0.3130 O.3     1  UNL1       -0.4371
      3 O          20.7827   70.7502    0.5023 O.2     1  UNL1       -0.5170
      4 O          21.8523   73.0311    0.3472 O.3     1  UNL1       -0.3112
      5 C          22.9029   73.3959    1.2442 C.3     1  UNL1        0.1811
      6 C          22.7152   73.6688    4.8256 C.3     1  UNL1        0.2383
      7 C          21.3290   74.1483    4.3251 C.3     1  UNL1        0.1895
      8 O          20.3098   73.8478    5.2804 O.3     1  UNL1       -0.3779
      9 C          21.1415   73.3117    3.0357 C.3     1  UNL1        0.1713
     10 C          22.5719   72.8888    2.6500 C.3     1  UNL1        0.1764
     11 O          23.4656   73.4808    3.6061 O.3     1  UNL1       -0.3308
     12 O          20.3338   72.1633    3.2992 O.3     1  UNL1       -0.3794
     13 H          19.4243   74.1290    5.0129 H       1  UNL1        0.2106
     14 H          19.4400   72.3714    3.6031 H       1  UNL1        0.2105
     15 N          23.3425   74.6917    5.6654 N.ar    1  UNL1       -0.2551
     16 C          23.8379   75.8066    5.0994 C.ar    1  UNL1        0.3323
     17 N          24.4199   76.7631    5.8469 N.ar    1  UNL1       -0.2743
     18 C          24.5135   76.6165    7.1841 C.ar    1  UNL1        0.2626
     19 C          23.9953   75.4483    7.7932 C.ar    1  UNL1        0.0795
     20 C          23.4132   74.5076    7.0201 C.ar    1  UNL1        0.0869
     21 O          23.7604   75.9524    3.8948 O.2     1  UNL1       -0.2464
     22 O          25.0396   77.4816    7.8618 O.2     1  UNL1       -0.2670
     23 H          24.7730   77.5603    5.4226 H       1  UNL1        0.1734
     24 O          21.1738   71.6874   -1.8086 O.3     1  UNL1       -0.2703
     25 P          19.7326   71.4733   -2.4943 P.3     1  UNL1        0.2208
     26 O          19.2185   69.9747   -2.2052 O.3     1  UNL1       -0.4371
     27 O          18.7684   72.4426   -1.9294 O.2     1  UNL1       -0.5170
     28 O          19.8553   71.7019   -4.0835 O.3     1  UNL1       -0.2865
     29 C          20.9861   71.2764   -4.8461 C.3     1  UNL1        0.2611
     30 C          21.7717   72.5008   -5.3219 C.3     1  UNL1        0.1582
     31 C          20.8811   73.3426   -6.2409 C.3     1  UNL1        0.1625
     32 C          20.4008   72.4725   -7.4056 C.3     1  UNL1        0.1686
     33 C          19.6678   71.2489   -6.8492 C.3     1  UNL1        0.1760
     34 O          21.6301   74.4492   -6.7486 O.3     1  UNL1       -0.3801
     35 O          21.5243   72.0463   -8.1784 O.3     1  UNL1       -0.3794
     36 O          20.5416   70.5272   -5.9789 O.3     1  UNL1       -0.3263
     37 H          21.1267   75.0267   -7.3387 H       1  UNL1        0.2105
     38 H          21.2936   71.4889   -8.9348 H       1  UNL1        0.2105
     39 C          23.4485   73.2502   -3.7205 C.2     1  UNL1        0.2231
     40 C          23.8661   74.0740   -2.5307 C.3     1  UNL1        0.0946
     41 N          22.1771   73.3023   -4.1644 N.am    1  UNL1       -0.2994
     42 O          24.2568   72.5390   -4.2799 O.2     1  UNL1       -0.2751
     43 H          21.5303   73.8700   -3.7168 H       1  UNL1        0.1496
     44 C          19.2366   70.3439   -8.0048 C.3     1  UNL1        0.1693
     45 O          20.3266   69.5002   -8.3823 O.3     1  UNL1       -0.3794
     46 H          20.1245   68.8981   -9.1114 H       1  UNL1        0.2105
@<TRIPOS>BOND
     1    29    30    1
     2    30    41    1
     3    30    31    1
     4    31    34    1
     5    31    32    1
     6    32    35    1
     7    32    33    1
     8    33    36    1
     9    33    44    1
    10    39    40    1
    11    39    42    2
    12    39    41   am
    13    41    43    1
    14    29    28    1
    15    34    37    1
    16    35    38    1
    17    29    36    1
    18    44    45    1
    19    45    46    1
    20    15     6    1
    21    15    16   ar
    22    16    21    2
    23    16    17   ar
    24    17    23    1
    25    17    18   ar
    26    18    19   ar
    27    19    20   ar
    28    15    20   ar
    29    18    22    2
    30     6     7    1
    31     6    11    1
    32     7     9    1
    33     7     8    1
    34     8    13    1
    35     9    10    1
    36     9    12    1
    37    10     5    1
    38    10    11    1
    39    12    14    1
    40     5     4    1
    41     4     1    1
    42     1     2    1
    43     1    24    1
    44     1     3    2
    45    24    25    1
    46    28    25    1
    47    25    26    1
    48    25    27    2
@<TRIPOS>MOLECULE
UD2
 46 48 0 0 0
SMALL
GASTEIGER

@<TRIPOS>ATOM
      1 P          16.6335   70.7285   -2.4866 P.3     1  UNL1        0.2189
      2 O          16.6486   72.0471   -1.5633 O.3     1  UNL1       -0.4371
      3 O          17.8849   69.9667   -2.2804 O.2     1  UNL1       -0.5170
      4 O          15.3731   69.8086   -2.0876 O.3     1  UNL1       -0.3112
      5 C          14.7944   69.8076   -0.7812 C.3     1  UNL1        0.1811
      6 C          12.2490   67.7099    0.6530 C.3     1  UNL1        0.2383
      7 C          11.7468   69.1554    0.8987 C.3     1  UNL1        0.1895
      8 O          10.3188   69.2060    0.9001 O.3     1  UNL1       -0.3779
      9 C          12.3251   69.9125   -0.3218 C.3     1  UNL1        0.1713
     10 C          13.4830   69.0186   -0.8054 C.3     1  UNL1        0.1764
     11 O          13.5671   67.9029    0.0955 O.3     1  UNL1       -0.3308
     12 O          11.3343   70.0442   -1.3425 O.3     1  UNL1       -0.3794
     13 H           9.9564   70.0895    1.0506 H       1  UNL1        0.2106
     14 H          10.5551   70.5485   -1.0726 H       1  UNL1        0.2105
     15 N          12.3252   66.9690    1.9141 N.ar    1  UNL1       -0.2551
     16 C          13.5176   66.7865    2.5088 C.ar    1  UNL1        0.3323
     17 N          13.6172   66.1094    3.6680 N.ar    1  UNL1       -0.2743
     18 C          12.5140   65.6023    4.2548 C.ar    1  UNL1        0.2626
     19 C          11.2522   65.7878    3.6403 C.ar    1  UNL1        0.0795
     20 C          11.1813   66.4743    2.4805 C.ar    1  UNL1        0.0869
     21 O          14.5207   67.2384    1.9911 O.2     1  UNL1       -0.2464
     22 O          12.6028   64.9896    5.3042 O.2     1  UNL1       -0.2670
     23 H          14.4849   65.9859    4.0827 H       1  UNL1        0.1734
     24 O          16.5149   71.1579   -4.0341 O.3     1  UNL1       -0.2703
     25 P          17.0063   72.4369   -4.8801 P.3     1  UNL1        0.2208
     26 O          16.0757   72.6074   -6.1834 O.3     1  UNL1       -0.4371
     27 O          16.9066   73.6514   -4.0413 O.2     1  UNL1       -0.5170
     28 O          18.5356   72.2232   -5.3363 O.3     1  UNL1       -0.2865
     29 C          19.1798   70.9480   -5.3271 C.3     1  UNL1        0.2611
     30 C          20.6965   71.1409   -5.3968 C.3     1  UNL1        0.1582
     31 C          21.0544   71.8331   -6.7156 C.3     1  UNL1        0.1625
     32 C          20.5217   70.9947   -7.8808 C.3     1  UNL1        0.1686
     33 C          19.0112   70.8074   -7.7152 C.3     1  UNL1        0.1760
     34 O          22.4749   71.9513   -6.8224 O.3     1  UNL1       -0.3801
     35 O          21.1642   69.7186   -7.8840 O.3     1  UNL1       -0.3794
     36 O          18.7450   70.1869   -6.4558 O.3     1  UNL1       -0.3263
     37 H          22.7733   72.3822   -7.6351 H       1  UNL1        0.2105
     38 H          20.8737   69.1330   -8.5972 H       1  UNL1        0.2105
     39 C          21.6878   71.3969   -3.1856 C.2     1  UNL1        0.2231
     40 C          22.1404   72.2499   -2.0297 C.3     1  UNL1        0.0946
     41 N          21.1364   71.9713   -4.2728 N.am    1  UNL1       -0.2994
     42 O          21.8194   70.1916   -3.1383 O.2     1  UNL1       -0.2751
     43 H          21.0301   72.9348   -4.3106 H       1  UNL1        0.1496
     44 C          18.4808   69.9206   -8.8434 C.3     1  UNL1        0.1693
     45 O          17.2611   70.4686   -9.3476 O.3     1  UNL1       -0.3794
     46 H          16.8670   69.9566  -10.0671 H       1  UNL1        0.2105
@<TRIPOS>BOND
     1    29    30    1
     2    30    41    1
     3    30    31    1
     4    31    34    1
     5    31    32    1
     6    32    35    1
     7    32    33    1
     8    33    36    1
     9    33    44    1
    10    39    40    1
    11    39    42    2
    12    39    41   am
    13    41    43    1
    14    29    28    1
    15    34    37    1
    16    35    38    1
    17    29    36    1
    18    44    45    1
    19    45    46    1
    20    15     6    1
    21    15    16   ar
    22    16    21    2
    23    16    17   ar
    24    17    23    1
    25    17    18   ar
    26    18    19   ar
    27    19    20   ar
    28    15    20   ar
    29    18    22    2
    30     6     7    1
    31     6    11    1
    32     7     9    1
    33     7     8    1
    34     8    13    1
    35     9    10    1
    36     9    12    1
    37    10     5    1
    38    10    11    1
    39    12    14    1
    40     5     4    1
    41     4     1    1
    42     1     2    1
    43     1    24    1
    44     1     3    2
    45    24    25    1
    46    28    25    1
    47    25    26    1
    48    25    27    2
@<TRIPOS>MOLECULE
UD2
 46 48 0 0 0
SMALL
GASTEIGER

@<TRIPOS>ATOM
      1 P          22.3537   72.8226   -4.3291 P.3     1  UNL1        0.2189
      2 O          21.5504   74.1260   -4.8261 O.3     1  UNL1       -0.4371
      3 O          23.4140   72.4931   -5.3070 O.2     1  UNL1       -0.5170
      4 O          23.0208   73.1186   -2.8935 O.3     1  UNL1       -0.3112
      5 C          22.2587   73.2260   -1.6897 C.3     1  UNL1        0.1811
      6 C          23.8349   71.8021    1.2129 C.3     1  UNL1        0.2383
      7 C          22.3962   72.1424    1.6781 C.3     1  UNL1        0.1895
      8 O          21.9565   71.2293    2.6854 O.3     1  UNL1       -0.3779
      9 C          21.5811   71.9610    0.3742 C.3     1  UNL1        0.1713
     10 C          22.6318   72.0799   -0.7462 C.3     1  UNL1        0.1764
     11 O          23.8955   72.3537   -0.1204 O.3     1  UNL1       -0.3308
     12 O          20.9638   70.6730    0.3470 O.3     1  UNL1       -0.3794
     13 H          21.0619   71.4014    3.0092 H       1  UNL1        0.2106
     14 H          20.3358   70.5217    1.0661 H       1  UNL1        0.2105
     15 N          24.8235   72.4435    2.0824 N.ar    1  UNL1       -0.2551
     16 C          25.9901   71.8239    2.3356 C.ar    1  UNL1        0.3323
     17 N          26.9168   72.3899    3.1312 N.ar    1  UNL1       -0.2743
     18 C          26.6875   73.5963    3.6884 C.ar    1  UNL1        0.2626
     19 C          25.4643   74.2603    3.4297 C.ar    1  UNL1        0.0795
     20 C          24.5549   73.6714    2.6248 C.ar    1  UNL1        0.0869
     21 O          26.2105   70.7358    1.8397 O.2     1  UNL1       -0.2464
     22 O          27.5256   74.1099    4.4083 O.2     1  UNL1       -0.2670
     23 H          27.7521   71.9289    3.3042 H       1  UNL1        0.1734
     24 O          21.3362   71.5809   -4.2015 O.3     1  UNL1       -0.2703
     25 P          19.7926   71.4410   -3.7649 P.3     1  UNL1        0.2208
     26 O          19.6738   70.4007   -2.5411 O.3     1  UNL1       -0.4371
     27 O          19.2779   72.7614   -3.3408 O.2     1  UNL1       -0.5170
     28 O          18.9287   70.9032   -5.0127 O.3     1  UNL1       -0.2865
     29 C          18.0842   71.7480   -5.7966 C.3     1  UNL1        0.2611
     30 C          16.6891   71.1263   -5.8954 C.3     1  UNL1        0.1582
     31 C          16.7907   69.7763   -6.6120 C.3     1  UNL1        0.1625
     32 C          17.4308   69.9871   -7.9868 C.3     1  UNL1        0.1686
     33 C          18.7978   70.6528   -7.8073 C.3     1  UNL1        0.1760
     34 O          15.4829   69.2224   -6.7740 O.3     1  UNL1       -0.3801
     35 O          16.5909   70.8265   -8.7812 O.3     1  UNL1       -0.3794
     36 O          18.6361   71.8881   -7.1074 O.3     1  UNL1       -0.3263
     37 H          15.4720   68.3649   -7.2209 H       1  UNL1        0.2105
     38 H          16.9359   71.0036   -9.6676 H       1  UNL1        0.2105
     39 C          16.2987   69.7394   -3.9303 C.2     1  UNL1        0.2231
     40 C          15.7409   69.5333   -2.5464 C.3     1  UNL1        0.0946
     41 N          16.1460   70.9266   -4.5494 N.am    1  UNL1       -0.2994
     42 O          16.8860   68.8362   -4.4884 O.2     1  UNL1       -0.2751
     43 H          15.6756   71.6486   -4.1039 H       1  UNL1        0.1496
     44 C          19.4182   70.9213   -9.1797 C.3     1  UNL1        0.1693
     45 O          18.4949   70.5432  -10.2029 O.3     1  UNL1       -0.3794
     46 H          18.8224   70.6861  -11.1014 H       1  UNL1        0.2105
@<TRIPOS>BOND
     1    29    30    1
     2    30    41    1
     3    30    31    1
     4    31    34    1
     5    31    32    1
     6    32    35    1
     7    32    33    1
     8    33    36    1
     9    33    44    1
    10    39    40    1
    11    39    42    2
    12    39    41   am
    13    41    43    1
    14    29    28    1
    15    34    37    1
    16    35    38    1
    17    29    36    1
    18    44    45    1
    19    45    46    1
    20    15     6    1
    21    15    16   ar
    22    16    21    2
    23    16    17   ar
    24    17    23    1
    25    17    18   ar
    26    18    19   ar
    27    19    20   ar
    28    15    20   ar
    29    18    22    2
    30     6     7    1
    31     6    11    1
    32     7     9    1
    33     7     8    1
    34     8    13    1
    35     9    10    1
    36     9    12    1
    37    10     5    1
    38    10    11    1
    39    12    14    1
    40     5     4    1
    41     4     1    1
    42     1     2    1
    43     1    24    1
    44     1     3    2
    45    24    25    1
    46    28    25    1
    47    25    26    1
    48    25    27    2
@<TRIPOS>MOLECULE
UD2
 46 48 0 0 0
SMALL
GASTEIGER

@<TRIPOS>ATOM
      1 P          23.4501   71.8937   -2.8059 P.3     1  UNL1        0.2189
      2 O          24.2596   73.1414   -3.4217 O.3     1  UNL1       -0.4371
      3 O          24.2225   70.6500   -3.0193 O.2     1  UNL1       -0.5170
      4 O          23.2290   72.1241   -1.2274 O.3     1  UNL1       -0.3112
      5 C          24.2175   71.7981   -0.2485 C.3     1  UNL1        0.1811
      6 C          22.9514   72.0095    3.1114 C.3     1  UNL1        0.2383
      7 C          21.7384   72.3656    2.2148 C.3     1  UNL1        0.1895
      8 O          20.5135   71.9613    2.8296 O.3     1  UNL1       -0.3779
      9 C          22.0192   71.5309    0.9413 C.3     1  UNL1        0.1713
     10 C          23.5319   71.2459    1.0038 C.3     1  UNL1        0.1764
     11 O          24.0437   71.9060    2.1724 O.3     1  UNL1       -0.3308
     12 O          21.2781   70.3100    0.9716 O.3     1  UNL1       -0.3794
     13 H          19.7256   72.1631    2.3071 H       1  UNL1        0.2106
     14 H          20.3193   70.4314    0.9934 H       1  UNL1        0.2105
     15 N          23.2052   73.0756    4.0831 N.ar    1  UNL1       -0.2551
     16 C          23.7916   74.2174    3.6817 C.ar    1  UNL1        0.3323
     17 N          24.0370   75.2138    4.5531 N.ar    1  UNL1       -0.2743
     18 C          23.6939   75.0806    5.8505 C.ar    1  UNL1        0.2626
     19 C          23.0750   73.8844    6.2866 C.ar    1  UNL1        0.0795
     20 C          22.8371   72.9037    5.3904 C.ar    1  UNL1        0.0869
     21 O          24.1061   74.3514    2.5149 O.2     1  UNL1       -0.2464
     22 O          23.9151   75.9818    6.6401 O.2     1  UNL1       -0.2670
     23 H          24.4617   76.0300    4.2472 H       1  UNL1        0.1734
     24 O          22.0196   71.7692   -3.5349 O.3     1  UNL1       -0.2703
     25 P          20.4943   71.8615   -3.0269 P.3     1  UNL1        0.2208
     26 O          20.2362   70.7413   -1.8989 O.3     1  UNL1       -0.4371
     27 O          20.2447   73.2029   -2.4554 O.2     1  UNL1       -0.5170
     28 O          19.4994   71.6128   -4.2683 O.3     1  UNL1       -0.2865
     29 C          19.9546   71.4783   -5.6159 C.3     1  UNL1        0.2611
     30 C          19.8552   72.8302   -6.3265 C.3     1  UNL1        0.1582
     31 C          18.3874   73.2663   -6.3727 C.3     1  UNL1        0.1625
     32 C          17.5653   72.1807   -7.0727 C.3     1  UNL1        0.1686
     33 C          17.7531   70.8535   -6.3331 C.3     1  UNL1        0.1760
     34 O          18.2765   74.4924   -7.0991 O.3     1  UNL1       -0.3801
     35 O          18.0091   72.0422   -8.4237 O.3     1  UNL1       -0.3794
     36 O          19.1425   70.5213   -6.2992 O.3     1  UNL1       -0.3263
     37 H          17.3722   74.8282   -7.1673 H       1  UNL1        0.2105
     38 H          17.5312   71.3692   -8.9283 H       1  UNL1        0.2105
     39 C          21.7551   74.3450   -6.1438 C.2     1  UNL1        0.2231
     40 C          22.5617   75.3702   -5.3908 C.3     1  UNL1        0.0946
     41 N          20.6393   73.8272   -5.5933 N.am    1  UNL1       -0.2994
     42 O          22.1097   73.9847   -7.2468 O.2     1  UNL1       -0.2751
     43 H          20.3560   74.1143   -4.7110 H       1  UNL1        0.1496
     44 C          16.9823   69.7507   -7.0612 C.3     1  UNL1        0.1693
     45 O          15.6034   70.1143   -7.1546 O.3     1  UNL1       -0.3794
     46 H          15.0531   69.4596   -7.6058 H       1  UNL1        0.2105
@<TRIPOS>BOND
     1    29    30    1
     2    30    41    1
     3    30    31    1
     4    31    34    1
     5    31    32    1
     6    32    35    1
     7    32    33    1
     8    33    36    1
     9    33    44    1
    10    39    40    1
    11    39    42    2
    12    39    41   am
    13    41    43    1
    14    29    28    1
    15    34    37    1
    16    35    38    1
    17    29    36    1
    18    44    45    1
    19    45    46    1
    20    15     6    1
    21    15    16   ar
    22    16    21    2
    23    16    17   ar
    24    17    23    1
    25    17    18   ar
    26    18    19   ar
    27    19    20   ar
    28    15    20   ar
    29    18    22    2
    30     6     7    1
    31     6    11    1
    32     7     9    1
    33     7     8    1
    34     8    13    1
    35     9    10    1
    36     9    12    1
    37    10     5    1
    38    10    11    1
    39    12    14    1
    40     5     4    1
    41     4     1    1
    42     1     2    1
    43     1    24    1
    44     1     3    2
    45    24    25    1
    46    28    25    1
    47    25    26    1
    48    25    27    2
@<TRIPOS>MOLECULE
UD2
 46 48 0 0 0
SMALL
GASTEIGER

@<TRIPOS>ATOM
      1 P          23.3085   71.8138   -3.3043 P.3     1  UNL1        0.2189
      2 O          24.1814   72.9020   -4.1076 O.3     1  UNL1       -0.4371
      3 O          24.1647   70.6624   -2.9439 O.2     1  UNL1       -0.5170
      4 O          22.7175   72.4835   -1.9642 O.3     1  UNL1       -0.3112
      5 C          23.5300   72.8107   -0.8354 C.3     1  UNL1        0.1811
      6 C          22.8291   72.2430    2.6464 C.3     1  UNL1        0.2383
      7 C          21.4624   72.6414    2.0337 C.3     1  UNL1        0.1895
      8 O          20.3874   72.0052    2.7276 O.3     1  UNL1       -0.3779
      9 C          21.5838   72.1000    0.5881 C.3     1  UNL1        0.1713
     10 C          23.1018   71.9617    0.3641 C.3     1  UNL1        0.1764
     11 O          23.7545   72.4325    1.5540 O.3     1  UNL1       -0.3308
     12 O          20.9434   70.8279    0.4764 O.3     1  UNL1       -0.3794
     13 H          19.5116   72.2237    2.3816 H       1  UNL1        0.2106
     14 H          19.9955   70.8459    0.6656 H       1  UNL1        0.2105
     15 N          23.1674   73.1220    3.7680 N.ar    1  UNL1       -0.2551
     16 C          23.9373   74.2045    3.5576 C.ar    1  UNL1        0.3323
     17 N          24.2641   75.0296    4.5698 N.ar    1  UNL1       -0.2743
     18 C          23.8191   74.7814    5.8184 C.ar    1  UNL1        0.2626
     19 C          23.0070   73.6460    6.0540 C.ar    1  UNL1        0.0795
     20 C          22.6915   72.8383    5.0198 C.ar    1  UNL1        0.0869
     21 O          24.3455   74.4408    2.4369 O.2     1  UNL1       -0.2464
     22 O          24.1138   75.5276    6.7354 O.2     1  UNL1       -0.2670
     23 H          24.8211   75.8050    4.4009 H       1  UNL1        0.1734
     24 O          22.0930   71.3094   -4.2324 O.3     1  UNL1       -0.2703
     25 P          20.5537   70.9302   -3.9500 P.3     1  UNL1        0.2208
     26 O          20.3451   69.3466   -4.1561 O.3     1  UNL1       -0.4371
     27 O          20.2020   71.2967   -2.5606 O.2     1  UNL1       -0.5170
     28 O          19.6064   71.7345   -4.9739 O.3     1  UNL1       -0.2865
     29 C          18.2729   71.3264   -5.2849 C.3     1  UNL1        0.2611
     30 C          17.8058   72.0340   -6.5592 C.3     1  UNL1        0.1582
     31 C          17.7844   73.5460   -6.3146 C.3     1  UNL1        0.1625
     32 C          16.8772   73.8460   -5.1182 C.3     1  UNL1        0.1686
     33 C          17.3803   73.0684   -3.8992 C.3     1  UNL1        0.1760
     34 O          17.2794   74.2100   -7.4753 O.3     1  UNL1       -0.3801
     35 O          15.5393   73.4467   -5.4213 O.3     1  UNL1       -0.3794
     36 O          17.4049   71.6724   -4.2036 O.3     1  UNL1       -0.3263
     37 H          17.2388   75.1725   -7.3909 H       1  UNL1        0.2105
     38 H          14.9085   73.6072   -4.7056 H       1  UNL1        0.2105
     39 C          18.3356   70.9254   -8.6635 C.2     1  UNL1        0.2231
     40 C          19.2839   70.6108   -9.7906 C.3     1  UNL1        0.0946
     41 N          18.7289   71.7282   -7.6550 N.am    1  UNL1       -0.2994
     42 O          17.2167   70.4560   -8.6629 O.2     1  UNL1       -0.2751
     43 H          19.6236   72.1030   -7.6546 H       1  UNL1        0.1496
     44 C          16.4442   73.3160   -2.7147 C.3     1  UNL1        0.1693
     45 O          16.8274   72.4799   -1.6209 O.3     1  UNL1       -0.3794
     46 H          16.2759   72.5840   -0.8335 H       1  UNL1        0.2105
@<TRIPOS>BOND
     1    29    30    1
     2    30    41    1
     3    30    31    1
     4    31    34    1
     5    31    32    1
     6    32    35    1
     7    32    33    1
     8    33    36    1
     9    33    44    1
    10    39    40    1
    11    39    42    2
    12    39    41   am
    13    41    43    1
    14    29    28    1
    15    34    37    1
    16    35    38    1
    17    29    36    1
    18    44    45    1
    19    45    46    1
    20    15     6    1
    21    15    16   ar
    22    16    21    2
    23    16    17   ar
    24    17    23    1
    25    17    18   ar
    26    18    19   ar
    27    19    20   ar
    28    15    20   ar
    29    18    22    2
    30     6     7    1
    31     6    11    1
    32     7     9    1
    33     7     8    1
    34     8    13    1
    35     9    10    1
    36     9    12    1
    37    10     5    1
    38    10    11    1
    39    12    14    1
    40     5     4    1
    41     4     1    1
    42     1     2    1
    43     1    24    1
    44     1     3    2
    45    24    25    1
    46    28    25    1
    47    25    26    1
    48    25    27    2
@<TRIPOS>MOLECULE
UD2
 46 48 0 0 0
SMALL
GASTEIGER

@<TRIPOS>ATOM
      1 P          23.4263   72.1830   -3.4266 P.3     1  UNL1        0.2189
      2 O          24.3696   72.9769   -4.4616 O.3     1  UNL1       -0.4371
      3 O          24.0773   70.9119   -3.0401 O.2     1  UNL1       -0.5170
      4 O          23.1908   73.0861   -2.1141 O.3     1  UNL1       -0.3112
      5 C          22.2382   72.7534   -1.1025 C.3     1  UNL1        0.1811
      6 C          24.3356   71.7936    1.6573 C.3     1  UNL1        0.2383
      7 C          22.9422   72.0338    2.2919 C.3     1  UNL1        0.1895
      8 O          22.7456   71.1876    3.4264 O.3     1  UNL1       -0.3779
      9 C          21.9872   71.6415    1.1380 C.3     1  UNL1        0.1713
     10 C          22.8600   71.7512   -0.1268 C.3     1  UNL1        0.1764
     11 O          24.1564   72.2114    0.2865 O.3     1  UNL1       -0.3308
     12 O          21.5210   70.3021    1.3099 O.3     1  UNL1       -0.3794
     13 H          21.8883   71.3013    3.8584 H       1  UNL1        0.2106
     14 H          21.0148   70.1621    2.1215 H       1  UNL1        0.2105
     15 N          25.3521   72.6148    2.3186 N.ar    1  UNL1       -0.2551
     16 C          26.5285   72.0651    2.6690 C.ar    1  UNL1        0.3323
     17 N          27.4807   72.7960    3.2782 N.ar    1  UNL1       -0.2743
     18 C          27.2676   74.1004    3.5461 C.ar    1  UNL1        0.2626
     19 C          26.0343   74.6923    3.1818 C.ar    1  UNL1        0.0795
     20 C          25.0991   73.9368    2.5685 C.ar    1  UNL1        0.0869
     21 O          26.7345   70.8901    2.4334 O.2     1  UNL1       -0.2464
     22 O          28.1288   74.7632    4.0970 O.2     1  UNL1       -0.2670
     23 H          28.3228   72.3836    3.5251 H       1  UNL1        0.1734
     24 O          22.0086   71.8702   -4.1234 O.3     1  UNL1       -0.2703
     25 P          21.2878   72.3810   -5.4696 P.3     1  UNL1        0.2208
     26 O          21.1440   73.9845   -5.4255 O.3     1  UNL1       -0.4371
     27 O          22.1003   71.9914   -6.6429 O.2     1  UNL1       -0.5170
     28 O          19.8269   71.7136   -5.5825 O.3     1  UNL1       -0.2865
     29 C          18.7730   72.2751   -6.3669 C.3     1  UNL1        0.2611
     30 C          17.4243   71.7734   -5.8452 C.3     1  UNL1        0.1582
     31 C          17.3603   70.2510   -6.0019 C.3     1  UNL1        0.1625
     32 C          17.5843   69.8901   -7.4730 C.3     1  UNL1        0.1686
     33 C          18.9272   70.4646   -7.9320 C.3     1  UNL1        0.1760
     34 O          16.0759   69.7819   -5.5853 O.3     1  UNL1       -0.3801
     35 O          16.5319   70.4425   -8.2658 O.3     1  UNL1       -0.3794
     36 O          18.9320   71.8793   -7.7308 O.3     1  UNL1       -0.3263
     37 H          15.9652   68.8239   -5.6572 H       1  UNL1        0.2105
     38 H          16.6101   70.2533   -9.2114 H       1  UNL1        0.2105
     39 C          17.6875   71.2622   -3.4772 C.2     1  UNL1        0.2231
     40 C          17.5450   71.6243   -2.0222 C.3     1  UNL1        0.0946
     41 N          17.2852   72.1262   -4.4300 N.am    1  UNL1       -0.2994
     42 O          18.1647   70.1921   -3.7923 O.2     1  UNL1       -0.2751
     43 H          16.9027   72.9815   -4.1785 H       1  UNL1        0.1496
     44 C          19.1311   70.1596   -9.4172 C.3     1  UNL1        0.1693
     45 O          18.5054   71.1760  -10.2033 O.3     1  UNL1       -0.3794
     46 H          18.5948   71.0469  -11.1574 H       1  UNL1        0.2105
@<TRIPOS>BOND
     1    29    30    1
     2    30    41    1
     3    30    31    1
     4    31    34    1
     5    31    32    1
     6    32    35    1
     7    32    33    1
     8    33    36    1
     9    33    44    1
    10    39    40    1
    11    39    42    2
    12    39    41   am
    13    41    43    1
    14    29    28    1
    15    34    37    1
    16    35    38    1
    17    29    36    1
    18    44    45    1
    19    45    46    1
    20    15     6    1
    21    15    16   ar
    22    16    21    2
    23    16    17   ar
    24    17    23    1
    25    17    18   ar
    26    18    19   ar
    27    19    20   ar
    28    15    20   ar
    29    18    22    2
    30     6     7    1
    31     6    11    1
    32     7     9    1
    33     7     8    1
    34     8    13    1
    35     9    10    1
    36     9    12    1
    37    10     5    1
    38    10    11    1
    39    12    14    1
    40     5     4    1
    41     4     1    1
    42     1     2    1
    43     1    24    1
    44     1     3    2
    45    24    25    1
    46    28    25    1
    47    25    26    1
    48    25    27    2
@<TRIPOS>MOLECULE
UD2
 46 48 0 0 0
SMALL
GASTEIGER

@<TRIPOS>ATOM
      1 P          20.3251   72.7134   -0.5085 P.3     1  UNL1        0.2189
      2 O          20.5229   71.2314    0.0880 O.3     1  UNL1       -0.4371
      3 O          19.1245   73.3325    0.0950 O.2     1  UNL1       -0.5170
      4 O          21.6201   73.6072   -0.1651 O.3     1  UNL1       -0.3112
      5 C          22.3270   73.5078    1.0725 C.3     1  UNL1        0.1811
      6 C          25.5192   72.1231    1.9834 C.3     1  UNL1        0.2383
      7 C          24.4834   71.2132    2.6913 C.3     1  UNL1        0.1895
      8 O          24.9758   69.8771    2.8111 O.3     1  UNL1       -0.3779
      9 C          23.2796   71.2731    1.7193 C.3     1  UNL1        0.1713
     10 C          23.5168   72.5594    0.9051 C.3     1  UNL1        0.1764
     11 O          24.7090   73.1759    1.4169 O.3     1  UNL1       -0.3308
     12 O          23.2742   70.1312    0.8609 O.3     1  UNL1       -0.3794
     13 H          24.3636   69.2698    3.2481 H       1  UNL1        0.2106
     14 H          23.1871   69.2886    1.3265 H       1  UNL1        0.2105
     15 N          26.4727   72.6695    2.9515 N.ar    1  UNL1       -0.2551
     16 C          27.6436   72.0418    3.1607 C.ar    1  UNL1        0.3323
     17 N          28.5385   72.5214    4.0446 N.ar    1  UNL1       -0.2743
     18 C          28.2723   73.6478    4.7367 C.ar    1  UNL1        0.2626
     19 C          27.0440   74.3193    4.5257 C.ar    1  UNL1        0.0795
     20 C          26.1671   73.8184    3.6304 C.ar    1  UNL1        0.0869
     21 O          27.8971   71.0253    2.5435 O.2     1  UNL1       -0.2464
     22 O          29.0816   74.0831    5.5367 O.2     1  UNL1       -0.2670
     23 H          29.3774   72.0557    4.1842 H       1  UNL1        0.1734
     24 O          20.1404   72.6290   -2.1060 O.3     1  UNL1       -0.2703
     25 P          21.1204   72.2500   -3.3262 P.3     1  UNL1        0.2208
     26 O          22.1033   73.4893   -3.6292 O.3     1  UNL1       -0.4371
     27 O          21.9233   71.0617   -2.9636 O.2     1  UNL1       -0.5170
     28 O          20.2441   71.9264   -4.6377 O.3     1  UNL1       -0.2865
     29 C          20.1760   70.6268   -5.2272 C.3     1  UNL1        0.2611
     30 C          20.2565   70.7516   -6.7506 C.3     1  UNL1        0.1582
     31 C          19.0521   71.5538   -7.2528 C.3     1  UNL1        0.1625
     32 C          17.7650   70.8629   -6.7943 C.3     1  UNL1        0.1686
     33 C          17.7805   70.7338   -5.2688 C.3     1  UNL1        0.1760
     34 O          19.0799   71.6127   -8.6808 O.3     1  UNL1       -0.3801
     35 O          17.6844   69.5637   -7.3832 O.3     1  UNL1       -0.3794
     36 O          18.9414   70.0043   -4.8659 O.3     1  UNL1       -0.3263
     37 H          18.3448   72.1076   -9.0680 H       1  UNL1        0.2105
     38 H          16.8920   69.0671   -7.1351 H       1  UNL1        0.2105
     39 C          21.5013   72.7837   -7.2593 C.2     1  UNL1        0.2231
     40 C          22.7732   73.4955   -7.6390 C.3     1  UNL1        0.0946
     41 N          21.4941   71.4433   -7.1201 N.am    1  UNL1       -0.2994
     42 O          20.4823   73.4170   -7.0786 O.2     1  UNL1       -0.2751
     43 H          22.3083   70.9364   -7.2655 H       1  UNL1        0.1496
     44 C          16.5253   69.9909   -4.8072 C.3     1  UNL1        0.1693
     45 O          16.7640   68.5823   -4.8440 O.3     1  UNL1       -0.3794
     46 H          16.0088   68.0475   -4.5635 H       1  UNL1        0.2105
@<TRIPOS>BOND
     1    29    30    1
     2    30    41    1
     3    30    31    1
     4    31    34    1
     5    31    32    1
     6    32    35    1
     7    32    33    1
     8    33    36    1
     9    33    44    1
    10    39    40    1
    11    39    42    2
    12    39    41   am
    13    41    43    1
    14    29    28    1
    15    34    37    1
    16    35    38    1
    17    29    36    1
    18    44    45    1
    19    45    46    1
    20    15     6    1
    21    15    16   ar
    22    16    21    2
    23    16    17   ar
    24    17    23    1
    25    17    18   ar
    26    18    19   ar
    27    19    20   ar
    28    15    20   ar
    29    18    22    2
    30     6     7    1
    31     6    11    1
    32     7     9    1
    33     7     8    1
    34     8    13    1
    35     9    10    1
    36     9    12    1
    37    10     5    1
    38    10    11    1
    39    12    14    1
    40     5     4    1
    41     4     1    1
    42     1     2    1
    43     1    24    1
    44     1     3    2
    45    24    25    1
    46    28    25    1
    47    25    26    1
    48    25    27    2
@<TRIPOS>MOLECULE
UD2
 46 48 0 0 0
SMALL
GASTEIGER

@<TRIPOS>ATOM
      1 P          16.4825   69.4975   -2.8587 P.3     1  UNL1        0.2189
      2 O          17.3377   68.2677   -2.2692 O.3     1  UNL1       -0.4371
      3 O          16.0648   69.1896   -4.2442 O.2     1  UNL1       -0.5170
      4 O          15.1776   69.7308   -1.9440 O.3     1  UNL1       -0.3112
      5 C          14.9759   69.0679   -0.6945 C.3     1  UNL1        0.1811
      6 C          12.1069   67.9619    1.1716 C.3     1  UNL1        0.2383
      7 C          12.3777   69.3979    1.6880 C.3     1  UNL1        0.1895
      8 O          11.1623   70.0337    2.0883 O.3     1  UNL1       -0.3779
      9 C          12.9751   70.0864    0.4364 C.3     1  UNL1        0.1713
     10 C          13.4751   68.9175   -0.4338 C.3     1  UNL1        0.1764
     11 O          13.2246   67.7046    0.2940 O.3     1  UNL1       -0.3308
     12 O          11.9679   70.8287   -0.2531 O.3     1  UNL1       -0.3794
     13 H          11.2798   70.9343    2.4195 H       1  UNL1        0.2106
     14 H          11.5759   71.5409    0.2698 H       1  UNL1        0.2105
     15 N          12.0929   67.0082    2.2830 N.ar    1  UNL1       -0.2551
     16 C          13.2542   66.5411    2.7750 C.ar    1  UNL1        0.3323
     17 N          13.2712   65.6637    3.7958 N.ar    1  UNL1       -0.2743
     18 C          12.1151   65.2388    4.3450 C.ar    1  UNL1        0.2626
     19 C          10.8854   65.7231    3.8377 C.ar    1  UNL1        0.0795
     20 C          10.8982   66.6054    2.8164 C.ar    1  UNL1        0.0869
     21 O          14.3043   66.9156    2.2898 O.2     1  UNL1       -0.2464
     22 O          12.1291   64.4451    5.2692 O.2     1  UNL1       -0.2670
     23 H          14.1173   65.3360    4.1377 H       1  UNL1        0.1734
     24 O          17.3857   70.8307   -2.8538 O.3     1  UNL1       -0.2703
     25 P          17.5361   72.0827   -3.8553 P.3     1  UNL1        0.2208
     26 O          16.2146   72.9993   -3.7701 O.3     1  UNL1       -0.4371
     27 O          18.7176   72.8846   -3.4689 O.2     1  UNL1       -0.5170
     28 O          17.7210   71.5455   -5.3619 O.3     1  UNL1       -0.2865
     29 C          17.9526   72.4116   -6.4743 C.3     1  UNL1        0.2611
     30 C          16.7776   72.3154   -7.4505 C.3     1  UNL1        0.1582
     31 C          16.6867   70.8835   -7.9869 C.3     1  UNL1        0.1625
     32 C          18.0186   70.5101   -8.6433 C.3     1  UNL1        0.1686
     33 C          19.1460   70.6759   -7.6208 C.3     1  UNL1        0.1760
     34 O          15.6379   70.8023   -8.9549 O.3     1  UNL1       -0.3801
     35 O          18.2571   71.3672   -9.7612 O.3     1  UNL1       -0.3794
     36 O          19.1560   72.0211   -7.1390 O.3     1  UNL1       -0.3263
     37 H          15.5231   69.9213   -9.3367 H       1  UNL1        0.2105
     38 H          19.0865   71.1874  -10.2257 H       1  UNL1        0.2105
     39 C          14.9896   73.8804   -6.9107 C.2     1  UNL1        0.2231
     40 C          13.7113   74.2329   -6.1962 C.3     1  UNL1        0.0946
     41 N          15.5344   72.6577   -6.7549 N.am    1  UNL1       -0.2994
     42 O          15.5295   74.6974   -7.6270 O.2     1  UNL1       -0.2751
     43 H          15.1036   72.0045   -6.1816 H       1  UNL1        0.1496
     44 C          20.4876   70.3620   -8.2859 C.3     1  UNL1        0.1693
     45 O          21.5424   70.9837   -7.5489 O.3     1  UNL1       -0.3794
     46 H          22.4238   70.8269   -7.9144 H       1  UNL1        0.2105
@<TRIPOS>BOND
     1    29    30    1
     2    30    41    1
     3    30    31    1
     4    31    34    1
     5    31    32    1
     6    32    35    1
     7    32    33    1
     8    33    36    1
     9    33    44    1
    10    39    40    1
    11    39    42    2
    12    39    41   am
    13    41    43    1
    14    29    28    1
    15    34    37    1
    16    35    38    1
    17    29    36    1
    18    44    45    1
    19    45    46    1
    20    15     6    1
    21    15    16   ar
    22    16    21    2
    23    16    17   ar
    24    17    23    1
    25    17    18   ar
    26    18    19   ar
    27    19    20   ar
    28    15    20   ar
    29    18    22    2
    30     6     7    1
    31     6    11    1
    32     7     9    1
    33     7     8    1
    34     8    13    1
    35     9    10    1
    36     9    12    1
    37    10     5    1
    38    10    11    1
    39    12    14    1
    40     5     4    1
    41     4     1    1
    42     1     2    1
    43     1    24    1
    44     1     3    2
    45    24    25    1
    46    28    25    1
    47    25    26    1
    48    25    27    2
@<TRIPOS>MOLECULE
UD2
 46 48 0 0 0
SMALL
GASTEIGER

@<TRIPOS>ATOM
      1 P          21.2069   71.4604   -2.9854 P.3     1  UNL1        0.2189
      2 O          20.8477   72.4597   -1.7756 O.3     1  UNL1       -0.4371
      3 O          22.3597   70.6158   -2.6027 O.2     1  UNL1       -0.5170
      4 O          19.9362   70.5229   -3.3022 O.3     1  UNL1       -0.3112
      5 C          18.7521   70.5228   -2.5027 C.3     1  UNL1        0.1811
      6 C          17.0550   70.4176   -5.6722 C.3     1  UNL1        0.2383
      7 C          16.9551   68.9697   -5.1285 C.3     1  UNL1        0.1895
      8 O          15.7559   68.3371   -5.5794 O.3     1  UNL1       -0.3779
      9 C          16.9168   69.1990   -3.5977 C.3     1  UNL1        0.1713
     10 C          17.5233   70.6030   -3.4120 C.3     1  UNL1        0.1764
     11 O          17.9074   71.0786   -4.7119 O.3     1  UNL1       -0.3308
     12 O          15.5700   69.1686   -3.1223 O.3     1  UNL1       -0.3794
     13 H          15.6481   67.4289   -5.2659 H       1  UNL1        0.2106
     14 H          15.1198   68.3255   -3.2674 H       1  UNL1        0.2105
     15 N          17.6696   70.4282   -7.0015 N.ar    1  UNL1       -0.2551
     16 C          16.8892   70.4611   -8.0963 C.ar    1  UNL1        0.3323
     17 N          17.4269   70.4714   -9.3304 N.ar    1  UNL1       -0.2743
     18 C          18.7662   70.4505   -9.4874 C.ar    1  UNL1        0.2626
     19 C          19.5997   70.4168   -8.3436 C.ar    1  UNL1        0.0795
     20 C          19.0335   70.4115   -7.1185 C.ar    1  UNL1        0.0869
     21 O          15.6801   70.4805   -7.9698 O.2     1  UNL1       -0.2464
     22 O          19.2541   70.4601  -10.6038 O.2     1  UNL1       -0.2670
     23 H          16.8497   70.4940  -10.1092 H       1  UNL1        0.1734
     24 O          21.5808   72.3173   -4.2966 O.3     1  UNL1       -0.2703
     25 P          22.8639   73.1851   -4.7365 P.3     1  UNL1        0.2208
     26 O          24.2053   72.4585   -4.2201 O.3     1  UNL1       -0.4371
     27 O          22.9014   73.2982   -6.2110 O.2     1  UNL1       -0.5170
     28 O          22.7655   74.6553   -4.0874 O.3     1  UNL1       -0.2865
     29 C          21.9986   75.7124   -4.6668 C.3     1  UNL1        0.2611
     30 C          20.7114   75.1409   -5.2662 C.3     1  UNL1        0.1582
     31 C          21.0716   74.1597   -6.3860 C.3     1  UNL1        0.1625
     32 C          21.9261   74.8842   -7.4297 C.3     1  UNL1        0.1686
     33 C          23.1669   75.4657   -6.7467 C.3     1  UNL1        0.1760
     34 O          19.8748   73.6768   -7.0005 O.3     1  UNL1       -0.3801
     35 O          21.1660   75.9404   -8.0196 O.3     1  UNL1       -0.3794
     36 O          22.7620   76.3454   -5.6958 O.3     1  UNL1       -0.3263
     37 H          20.0282   73.0487   -7.7196 H       1  UNL1        0.2105
     38 H          21.6466   76.4440   -8.6914 H       1  UNL1        0.2105
     39 C          18.7485   74.8999   -3.8426 C.2     1  UNL1        0.2231
     40 C          17.9712   74.1794   -2.7724 C.3     1  UNL1        0.0946
     41 N          19.9561   74.4397   -4.2249 N.am    1  UNL1       -0.2994
     42 O          18.2876   75.8953   -4.3613 O.2     1  UNL1       -0.2751
     43 H          20.3253   73.6445   -3.8098 H       1  UNL1        0.1496
     44 C          23.9960   76.2423   -7.7713 C.3     1  UNL1        0.1693
     45 O          23.4498   77.5531   -7.9321 O.3     1  UNL1       -0.3794
     46 H          23.9265   78.1030   -8.5688 H       1  UNL1        0.2105
@<TRIPOS>BOND
     1    29    30    1
     2    30    41    1
     3    30    31    1
     4    31    34    1
     5    31    32    1
     6    32    35    1
     7    32    33    1
     8    33    36    1
     9    33    44    1
    10    39    40    1
    11    39    42    2
    12    39    41   am
    13    41    43    1
    14    29    28    1
    15    34    37    1
    16    35    38    1
    17    29    36    1
    18    44    45    1
    19    45    46    1
    20    15     6    1
    21    15    16   ar
    22    16    21    2
    23    16    17   ar
    24    17    23    1
    25    17    18   ar
    26    18    19   ar
    27    19    20   ar
    28    15    20   ar
    29    18    22    2
    30     6     7    1
    31     6    11    1
    32     7     9    1
    33     7     8    1
    34     8    13    1
    35     9    10    1
    36     9    12    1
    37    10     5    1
    38    10    11    1
    39    12    14    1
    40     5     4    1
    41     4     1    1
    42     1     2    1
    43     1    24    1
    44     1     3    2
    45    24    25    1
    46    28    25    1
    47    25    26    1
    48    25    27    2
