@<TRIPOS>MOLECULE
*****
 43 45 0 0 0
SMALL
GASTEIGER

@<TRIPOS>ATOM
      1 P          22.9335   71.5424   -2.7149 P.3     1  UNL1        0.2189
      2 O          22.9884   73.1103   -2.3183 O.co2   1  UNL1       -0.4371
      3 O          24.2380   70.9585   -3.1724 O.2     1  UNL1       -0.5170
      4 O          21.7135   71.4520   -3.7738 O.3     1  UNL1       -0.3112
      5 C          20.8448   70.3357   -3.7108 C.3     1  UNL1        0.1811
      6 O          18.9587   71.5117   -4.6259 O.3     1  UNL1       -0.3308
      7 O          17.3395   70.2252   -2.4546 O.3     1  UNL1       -0.3794
      8 O          16.7467   68.6901   -4.6290 O.3     1  UNL1       -0.3779
      9 C          18.4367   69.6949   -3.1984 C.3     1  UNL1        0.1713
     10 C          17.9969   69.3465   -4.6047 C.3     1  UNL1        0.1895
     11 C          19.4269   70.8248   -3.4451 C.3     1  UNL1        0.1764
     12 C          17.9536   70.7120   -5.2690 C.3     1  UNL1        0.2383
     13 H          16.6933   69.5215   -2.2848 H       1  UNL1        0.2105
     14 H          16.8267   67.8259   -4.1946 H       1  UNL1        0.2106
     15 O          16.0199   70.2085   -7.2650 O.2     1  UNL1       -0.2464
     16 O          19.1568   70.4843  -10.6307 O.2     1  UNL1       -0.2670
     17 N          18.2376   70.6468   -6.6747 N.ar    1  UNL1       -0.2551
     18 N          17.5843   70.3453   -8.9393 N.ar    1  UNL1       -0.2743
     19 C          17.1939   70.3878   -7.5944 C.ar    1  UNL1        0.3323
     20 C          19.5363   70.8398   -7.1296 C.ar    1  UNL1        0.0869
     21 C          19.8930   70.7965   -8.4147 C.ar    1  UNL1        0.0795
     22 C          18.8628   70.5303   -9.4400 C.ar    1  UNL1        0.2626
     23 H          16.8754   70.1645   -9.5981 H       1  UNL1        0.1734
     24 O          22.3158   70.8541   -1.3892 O.3     1  UNL1       -0.2703
     25 P          21.6495   71.5048   -0.0677 P.3     1  UNL1        0.2208
     26 O          21.0802   70.2174    0.7316 O.co2   1  UNL1       -0.4371
     27 O          20.6207   72.5603   -0.3528 O.2     1  UNL1       -0.5170
     28 O          22.9014   72.0111    0.8149 O.3     1  UNL1       -0.2858
     29 O          24.5786   71.3259    2.3402 O.3     1  UNL1       -0.3226
     30 O          22.5236   74.1406    4.5589 O.3     1  UNL1       -0.3794
     31 O          21.0776   72.2151    2.9049 O.3     1  UNL1       -0.3775
     32 O          25.1110   74.7959    3.4069 O.3     1  UNL1       -0.3792
     33 C          23.0502   73.5482    3.3715 C.3     1  UNL1        0.1718
     34 C          22.4682   72.1451    3.1982 C.3     1  UNL1        0.1968
     35 C          24.5725   73.4793    3.5124 C.3     1  UNL1        0.1723
     36 C          23.1778   71.3939    2.0708 C.3     1  UNL1        0.2706
     37 C          25.1939   72.6094    2.4235 C.3     1  UNL1        0.1830
     38 H          21.5572   74.1947    4.4923 H       1  UNL1        0.2105
     39 H          20.6211   72.6907    3.6161 H       1  UNL1        0.2106
     40 H          24.7235   75.3598    4.0944 H       1  UNL1        0.2106
     41 O          26.9038   71.0041    2.3980 O.co2   1  UNL1       -0.5466
     42 O          27.4102   73.0495    3.2694 O.co2   1  UNL1       -0.5466
     43 C          26.6134   72.2802    2.7532 C.2     1  UNL1        0.0799
@<TRIPOS>UNITY_ATOM_ATTR
2 1
charge -1
26 1
charge -1
41 1
charge -1
@<TRIPOS>BOND
     1     1     4    1
     2     1    24    1
     3     1     2    1
     4     1     3    2
     5    25    28    1
     6    25    24    1
     7    25    26    1
     8    25    27    2
     9     6    11    1
    10     6    12    1
    11    29    36    1
    12    29    37    1
    13     7     9    1
    14     7    13    1
    15     8    10    1
    16     8    14    1
    17     4     5    1
    18    28    36    1
    19    30    33    1
    20    30    38    1
    21    31    34    1
    22    31    39    1
    23    32    35    1
    24    32    40    1
    25    41    43   ar
    26    15    19    2
    27    42    43   ar
    28    16    22    2
    29    17    12    1
    30    17    19   ar
    31    17    20   ar
    32    18    19   ar
    33    18    22   ar
    34    18    23    1
    35     9    10    1
    36     9    11    1
    37    10    12    1
    38    11     5    1
    39    33    34    1
    40    33    35    1
    41    34    36    1
    42    35    37    1
    43    37    43    1
    44    20    21   ar
    45    21    22   ar
@<TRIPOS>MOLECULE
*****
 43 45 0 0 0
SMALL
GASTEIGER

@<TRIPOS>ATOM
      1 P          22.9092   71.3929   -2.4341 P.3     1  UNL1        0.2189
      2 O          22.7217   72.9987   -2.3631 O.co2   1  UNL1       -0.4371
      3 O          24.1786   70.9315   -3.0878 O.2     1  UNL1       -0.5170
      4 O          21.5378   70.8714   -3.1162 O.3     1  UNL1       -0.3112
      5 C          20.9007   71.6991   -4.0719 C.3     1  UNL1        0.1811
      6 O          18.7074   72.0857   -4.9761 O.3     1  UNL1       -0.3308
      7 O          17.6580   70.7146   -2.5245 O.3     1  UNL1       -0.3794
      8 O          17.4990   68.7570   -4.4162 O.3     1  UNL1       -0.3779
      9 C          18.8381   70.4382   -3.2793 C.3     1  UNL1        0.1713
     10 C          18.4786   69.7603   -4.5845 C.3     1  UNL1        0.1895
     11 C          19.4118   71.7652   -3.7570 C.3     1  UNL1        0.1764
     12 C          17.9824   70.9279   -5.4201 C.3     1  UNL1        0.2383
     13 H          17.2734   69.8816   -2.2086 H       1  UNL1        0.2105
     14 H          17.8634   68.0363   -3.8780 H       1  UNL1        0.2106
     15 O          15.9503   70.5534   -7.3455 O.2     1  UNL1       -0.2464
     16 O          19.0104   70.2080  -10.7748 O.2     1  UNL1       -0.2670
     17 N          18.2200   70.7378   -6.8231 N.ar    1  UNL1       -0.2551
     18 N          17.4764   70.3807   -9.0515 N.ar    1  UNL1       -0.2743
     19 C          17.1289   70.5582   -7.7058 C.ar    1  UNL1        0.3323
     20 C          19.5209   70.7321   -7.3116 C.ar    1  UNL1        0.0869
     21 C          19.8364   70.5619   -8.5970 C.ar    1  UNL1        0.0795
     22 C          18.7550   70.3668   -9.5849 C.ar    1  UNL1        0.2626
     23 H          16.7337   70.2518   -9.6848 H       1  UNL1        0.1734
     24 O          22.7429   70.9397   -0.8914 O.3     1  UNL1       -0.2703
     25 P          21.6660   71.3756    0.2328 P.3     1  UNL1        0.2208
     26 O          21.6516   70.1098    1.2417 O.co2   1  UNL1       -0.4371
     27 O          20.3181   71.7445   -0.3158 O.2     1  UNL1       -0.5170
     28 O          22.3949   72.5505    1.0640 O.3     1  UNL1       -0.2858
     29 O          24.4760   73.5687    0.5725 O.3     1  UNL1       -0.3226
     30 O          24.2670   74.0200    4.6738 O.3     1  UNL1       -0.3794
     31 O          23.4537   71.5115    3.4167 O.3     1  UNL1       -0.3775
     32 O          23.7690   76.2910    2.9286 O.3     1  UNL1       -0.3792
     33 C          23.7525   73.9181    3.3461 C.3     1  UNL1        0.1718
     34 C          24.1397   72.5647    2.7497 C.3     1  UNL1        0.1968
     35 C          24.3528   75.0562    2.5176 C.3     1  UNL1        0.1723
     36 C          23.8075   72.5090    1.2579 C.3     1  UNL1        0.2706
     37 C          24.0850   74.8621    1.0279 C.3     1  UNL1        0.1830
     38 H          23.8993   73.3067    5.2189 H       1  UNL1        0.2105
     39 H          23.6597   71.5410    4.3639 H       1  UNL1        0.2106
     40 H          23.9321   76.4266    3.8751 H       1  UNL1        0.2106
     41 O          24.8750   75.4468   -1.1018 O.co2   1  UNL1       -0.5466
     42 O          25.6037   76.7001    0.6581 O.co2   1  UNL1       -0.5466
     43 C          24.9387   75.7773    0.2119 C.2     1  UNL1        0.0799
@<TRIPOS>UNITY_ATOM_ATTR
2 1
charge -1
26 1
charge -1
41 1
charge -1
@<TRIPOS>BOND
     1     1     4    1
     2     1    24    1
     3     1     2    1
     4     1     3    2
     5    25    28    1
     6    25    24    1
     7    25    26    1
     8    25    27    2
     9     6    11    1
    10     6    12    1
    11    29    36    1
    12    29    37    1
    13     7     9    1
    14     7    13    1
    15     8    10    1
    16     8    14    1
    17     4     5    1
    18    28    36    1
    19    30    33    1
    20    30    38    1
    21    31    34    1
    22    31    39    1
    23    32    35    1
    24    32    40    1
    25    41    43   ar
    26    15    19    2
    27    42    43   ar
    28    16    22    2
    29    17    12    1
    30    17    19   ar
    31    17    20   ar
    32    18    19   ar
    33    18    22   ar
    34    18    23    1
    35     9    10    1
    36     9    11    1
    37    10    12    1
    38    11     5    1
    39    33    34    1
    40    33    35    1
    41    34    36    1
    42    35    37    1
    43    37    43    1
    44    20    21   ar
    45    21    22   ar
@<TRIPOS>MOLECULE
*****
 43 45 0 0 0
SMALL
GASTEIGER

@<TRIPOS>ATOM
      1 P          21.1255   72.0192   -4.4889 P.3     1  UNL1        0.2189
      2 O          20.2528   73.3100   -4.0517 O.co2   1  UNL1       -0.4371
      3 O          22.0702   72.2506   -5.6317 O.2     1  UNL1       -0.5170
      4 O          20.0190   70.8607   -4.7156 O.3     1  UNL1       -0.3112
      5 C          19.3541   70.3300   -3.5839 C.3     1  UNL1        0.1811
      6 O          17.6415   71.3550   -4.9234 O.3     1  UNL1       -0.3308
      7 O          15.6752   69.8857   -3.2010 O.3     1  UNL1       -0.3794
      8 O          15.7577   68.3508   -5.4534 O.3     1  UNL1       -0.3779
      9 C          16.9612   69.4696   -3.6611 C.3     1  UNL1        0.1713
     10 C          16.9018   69.1137   -5.1315 C.3     1  UNL1        0.1895
     11 C          17.8755   70.6871   -3.6646 C.3     1  UNL1        0.1764
     12 C          16.8946   70.4839   -5.7875 C.3     1  UNL1        0.2383
     13 H          15.0734   69.1245   -3.1901 H       1  UNL1        0.2105
     14 H          15.8098   67.4880   -5.0121 H       1  UNL1        0.2106
     15 O          15.4752   70.6050   -8.2262 O.2     1  UNL1       -0.2464
     16 O          19.3576   70.4378  -10.7047 O.2     1  UNL1       -0.2670
     17 N          17.5095   70.4737   -7.0847 N.ar    1  UNL1       -0.2551
     18 N          17.4102   70.5206   -9.4584 N.ar    1  UNL1       -0.2743
     19 C          16.7057   70.5382   -8.2474 C.ar    1  UNL1        0.3323
     20 C          18.8927   70.4022   -7.1960 C.ar    1  UNL1        0.0869
     21 C          19.5500   70.3864   -8.3573 C.ar    1  UNL1        0.0795
     22 C          18.7844   70.4497   -9.6196 C.ar    1  UNL1        0.2626
     23 H          16.8719   70.5625  -10.2817 H       1  UNL1        0.1734
     24 O          21.8367   71.5768   -3.1064 O.3     1  UNL1       -0.2703
     25 P          23.3277   71.8509   -2.5447 P.3     1  UNL1        0.2208
     26 O          23.6731   73.3254   -3.1163 O.co2   1  UNL1       -0.4371
     27 O          24.3286   70.7945   -2.9138 O.2     1  UNL1       -0.5170
     28 O          23.1343   72.0645   -0.9574 O.3     1  UNL1       -0.2858
     29 O          24.3366   70.9762    0.7686 O.3     1  UNL1       -0.3226
     30 O          20.7638   71.8457    2.6519 O.3     1  UNL1       -0.3794
     31 O          20.7861   70.8493   -0.0942 O.3     1  UNL1       -0.3775
     32 O          23.1379   73.4214    3.2276 O.3     1  UNL1       -0.3792
     33 C          21.8362   72.0520    1.7326 C.3     1  UNL1        0.1718
     34 C          21.9180   70.8687    0.7678 C.3     1  UNL1        0.1968
     35 C          23.1322   72.1733    2.5372 C.3     1  UNL1        0.1723
     36 C          23.1886   70.9410   -0.0801 C.3     1  UNL1        0.2706
     37 C          24.3584   72.1115    1.6311 C.3     1  UNL1        0.1830
     38 H          19.9295   71.7656    2.1632 H       1  UNL1        0.2105
     39 H          19.9762   70.8037    0.4373 H       1  UNL1        0.2106
     40 H          22.3624   73.4735    3.8078 H       1  UNL1        0.2106
     41 O          25.9231   70.5829    2.4777 O.co2   1  UNL1       -0.5466
     42 O          26.2451   72.7846    2.9761 O.co2   1  UNL1       -0.5466
     43 C          25.6008   71.8994    2.4334 C.2     1  UNL1        0.0799
@<TRIPOS>UNITY_ATOM_ATTR
2 1
charge -1
26 1
charge -1
41 1
charge -1
@<TRIPOS>BOND
     1     1     4    1
     2     1    24    1
     3     1     2    1
     4     1     3    2
     5    25    28    1
     6    25    24    1
     7    25    26    1
     8    25    27    2
     9     6    11    1
    10     6    12    1
    11    29    36    1
    12    29    37    1
    13     7     9    1
    14     7    13    1
    15     8    10    1
    16     8    14    1
    17     4     5    1
    18    28    36    1
    19    30    33    1
    20    30    38    1
    21    31    34    1
    22    31    39    1
    23    32    35    1
    24    32    40    1
    25    41    43   ar
    26    15    19    2
    27    42    43   ar
    28    16    22    2
    29    17    12    1
    30    17    19   ar
    31    17    20   ar
    32    18    19   ar
    33    18    22   ar
    34    18    23    1
    35     9    10    1
    36     9    11    1
    37    10    12    1
    38    11     5    1
    39    33    34    1
    40    33    35    1
    41    34    36    1
    42    35    37    1
    43    37    43    1
    44    20    21   ar
    45    21    22   ar
@<TRIPOS>MOLECULE
*****
 43 45 0 0 0
SMALL
GASTEIGER

@<TRIPOS>ATOM
      1 P          21.9547   72.4531   -5.9087 P.3     1  UNL1        0.2189
      2 O          21.2016   73.8377   -5.5421 O.co2   1  UNL1       -0.4371
      3 O          23.1575   72.6011   -6.7938 O.2     1  UNL1       -0.5170
      4 O          20.7730   71.5079   -6.4815 O.3     1  UNL1       -0.3112
      5 C          20.0865   71.9171   -7.6502 C.3     1  UNL1        0.1811
      6 O          18.8496   69.9030   -7.2127 O.3     1  UNL1       -0.3308
      7 O          18.0364   69.9971  -10.0974 O.3     1  UNL1       -0.3794
      8 O          15.8336   70.9794   -8.8251 O.3     1  UNL1       -0.3779
      9 C          18.2373   71.0722   -9.1797 C.3     1  UNL1        0.1713
     10 C          17.0878   71.1443   -8.1971 C.3     1  UNL1        0.1895
     11 C          19.4066   70.7060   -8.2759 C.3     1  UNL1        0.1764
     12 C          17.4174   70.0096   -7.2423 C.3     1  UNL1        0.2383
     13 H          17.2940   70.2081  -10.6856 H       1  UNL1        0.2105
     14 H          15.6702   71.7270   -9.4221 H       1  UNL1        0.2106
     15 O          16.2874   68.0414   -5.5613 O.2     1  UNL1       -0.2464
     16 O          15.6198   71.0733   -2.1546 O.2     1  UNL1       -0.2670
     17 N          16.9401   70.2572   -5.9112 N.ar    1  UNL1       -0.2551
     18 N          15.9550   69.5536   -3.8665 N.ar    1  UNL1       -0.2743
     19 C          16.3896   69.1988   -5.1504 C.ar    1  UNL1        0.3323
     20 C          17.0210   71.5354   -5.3720 C.ar    1  UNL1        0.0869
     21 C          16.6026   71.8582   -4.1466 C.ar    1  UNL1        0.0795
     22 C          16.0140   70.8105   -3.2868 C.ar    1  UNL1        0.2626
     23 H          15.5662   68.8338   -3.3187 H       1  UNL1        0.1734
     24 O          22.2617   71.8116   -4.4572 O.3     1  UNL1       -0.2703
     25 P          23.4893   72.0454   -3.4315 P.3     1  UNL1        0.2208
     26 O          24.4385   73.0909   -4.2229 O.co2   1  UNL1       -0.4371
     27 O          24.1816   70.7845   -3.0019 O.2     1  UNL1       -0.5170
     28 O          22.8548   72.9058   -2.2232 O.3     1  UNL1       -0.2858
     29 O          21.2250   72.0015   -0.7621 O.3     1  UNL1       -0.3226
     30 O          20.6561   76.0609   -0.2469 O.3     1  UNL1       -0.3794
     31 O          21.1056   74.9552   -2.9133 O.3     1  UNL1       -0.3775
     32 O          22.0337   74.5105    1.7901 O.3     1  UNL1       -0.3792
     33 C          21.4029   74.8723   -0.5069 C.3     1  UNL1        0.1718
     34 C          20.8446   74.1788   -1.7498 C.3     1  UNL1        0.1968
     35 C          21.2773   73.9584    0.7141 C.3     1  UNL1        0.1723
     36 C          21.4641   72.7919   -1.9272 C.3     1  UNL1        0.2706
     37 C          21.8028   72.5568    0.4173 C.3     1  UNL1        0.1830
     38 H          20.7212   76.6572   -1.0095 H       1  UNL1        0.2105
     39 H          20.7156   75.8367   -2.8076 H       1  UNL1        0.2106
     40 H          21.7093   75.4027    1.9889 H       1  UNL1        0.2106
     41 O          21.6089   70.3180    1.0894 O.co2   1  UNL1       -0.5466
     42 O          20.9011   71.9104    2.5599 O.co2   1  UNL1       -0.5466
     43 C          21.3819   71.5962    1.4814 C.2     1  UNL1        0.0799
@<TRIPOS>UNITY_ATOM_ATTR
2 1
charge -1
26 1
charge -1
41 1
charge -1
@<TRIPOS>BOND
     1     1     4    1
     2     1    24    1
     3     1     2    1
     4     1     3    2
     5    25    28    1
     6    25    24    1
     7    25    26    1
     8    25    27    2
     9     6    11    1
    10     6    12    1
    11    29    36    1
    12    29    37    1
    13     7     9    1
    14     7    13    1
    15     8    10    1
    16     8    14    1
    17     4     5    1
    18    28    36    1
    19    30    33    1
    20    30    38    1
    21    31    34    1
    22    31    39    1
    23    32    35    1
    24    32    40    1
    25    41    43   ar
    26    15    19    2
    27    42    43   ar
    28    16    22    2
    29    17    12    1
    30    17    19   ar
    31    17    20   ar
    32    18    19   ar
    33    18    22   ar
    34    18    23    1
    35     9    10    1
    36     9    11    1
    37    10    12    1
    38    11     5    1
    39    33    34    1
    40    33    35    1
    41    34    36    1
    42    35    37    1
    43    37    43    1
    44    20    21   ar
    45    21    22   ar
@<TRIPOS>MOLECULE
*****
 43 45 0 0 0
SMALL
GASTEIGER

@<TRIPOS>ATOM
      1 P          21.4809   73.1488   -4.8872 P.3     1  UNL1        0.2189
      2 O          21.4613   74.6645   -4.3203 O.co2   1  UNL1       -0.4371
      3 O          22.1869   72.9724   -6.1996 O.2     1  UNL1       -0.5170
      4 O          19.9255   72.7040   -4.8607 O.3     1  UNL1       -0.3112
      5 C          19.4921   71.8210   -3.8424 C.3     1  UNL1        0.1811
      6 O          17.5441   71.9916   -5.2402 O.3     1  UNL1       -0.3308
      7 O          16.1065   70.4523   -3.1059 O.3     1  UNL1       -0.3794
      8 O          16.6154   68.5384   -4.9805 O.3     1  UNL1       -0.3779
      9 C          17.4541   70.3245   -3.5598 C.3     1  UNL1        0.1713
     10 C          17.4894   69.6457   -4.9126 C.3     1  UNL1        0.1895
     11 C          17.9730   71.7177   -3.8888 C.3     1  UNL1        0.1764
     12 C          17.0771   70.7740   -5.8425 C.3     1  UNL1        0.2383
     13 H          15.7533   69.5747   -2.8895 H       1  UNL1        0.2105
     14 H          16.9207   67.8477   -4.3709 H       1  UNL1        0.2106
     15 O          15.5966   70.7200   -8.2471 O.2     1  UNL1       -0.2464
     16 O          19.4100   70.2828  -10.7987 O.2     1  UNL1       -0.2670
     17 N          17.6577   70.6470   -7.1493 N.ar    1  UNL1       -0.2551
     18 N          17.4973   70.5013   -9.5156 N.ar    1  UNL1       -0.2743
     19 C          16.8249   70.6301   -8.2931 C.ar    1  UNL1        0.3323
     20 C          19.0364   70.5424   -7.2885 C.ar    1  UNL1        0.0869
     21 C          19.6627   70.4203   -8.4605 C.ar    1  UNL1        0.0795
     22 C          18.8656   70.3935   -9.7044 C.ar    1  UNL1        0.2626
     23 H          16.9384   70.4851  -10.3260 H       1  UNL1        0.1734
     24 O          22.1194   72.3111   -3.6612 O.3     1  UNL1       -0.2703
     25 P          23.6442   72.1923   -3.1370 P.3     1  UNL1        0.2208
     26 O          24.4665   73.1197   -4.1782 O.co2   1  UNL1       -0.4371
     27 O          24.1508   70.7830   -3.0308 O.2     1  UNL1       -0.5170
     28 O          23.6661   73.0179   -1.7513 O.3     1  UNL1       -0.2858
     29 O          21.7695   72.7093   -0.3668 O.3     1  UNL1       -0.3226
     30 O          23.6539   75.8856    1.4847 O.3     1  UNL1       -0.3794
     31 O          23.4594   75.7727   -1.4280 O.3     1  UNL1       -0.3775
     32 O          23.8066   73.2229    2.6413 O.3     1  UNL1       -0.3792
     33 C          23.5770   74.6748    0.7323 C.3     1  UNL1        0.1718
     34 C          22.7588   74.9123   -0.5372 C.3     1  UNL1        0.1968
     35 C          22.9046   73.6155    1.6085 C.3     1  UNL1        0.1723
     36 C          22.4605   73.5929   -1.2507 C.3     1  UNL1        0.2706
     37 C          22.5251   72.3803    0.7968 C.3     1  UNL1        0.1830
     38 H          24.0778   76.5736    0.9479 H       1  UNL1        0.2105
     39 H          23.6522   76.6117   -0.9817 H       1  UNL1        0.2106
     40 H          24.0562   74.0000    3.1653 H       1  UNL1        0.2106
     41 O          21.5706   70.2527    1.0493 O.co2   1  UNL1       -0.5466
     42 O          20.9330   71.8616    2.5339 O.co2   1  UNL1       -0.5466
     43 C          21.5905   71.5057    1.5675 C.2     1  UNL1        0.0799
@<TRIPOS>UNITY_ATOM_ATTR
2 1
charge -1
26 1
charge -1
41 1
charge -1
@<TRIPOS>BOND
     1     1     4    1
     2     1    24    1
     3     1     2    1
     4     1     3    2
     5    25    28    1
     6    25    24    1
     7    25    26    1
     8    25    27    2
     9     6    11    1
    10     6    12    1
    11    29    36    1
    12    29    37    1
    13     7     9    1
    14     7    13    1
    15     8    10    1
    16     8    14    1
    17     4     5    1
    18    28    36    1
    19    30    33    1
    20    30    38    1
    21    31    34    1
    22    31    39    1
    23    32    35    1
    24    32    40    1
    25    41    43   ar
    26    15    19    2
    27    42    43   ar
    28    16    22    2
    29    17    12    1
    30    17    19   ar
    31    17    20   ar
    32    18    19   ar
    33    18    22   ar
    34    18    23    1
    35     9    10    1
    36     9    11    1
    37    10    12    1
    38    11     5    1
    39    33    34    1
    40    33    35    1
    41    34    36    1
    42    35    37    1
    43    37    43    1
    44    20    21   ar
    45    21    22   ar
@<TRIPOS>MOLECULE
*****
 43 45 0 0 0
SMALL
GASTEIGER

@<TRIPOS>ATOM
      1 P          23.5028   73.5647   -4.1902 P.3     1  UNL1        0.2189
      2 O          22.7356   74.9650   -4.4536 O.co2   1  UNL1       -0.4371
      3 O          24.9948   73.6722   -4.0711 O.2     1  UNL1       -0.5170
      4 O          22.9598   72.5968   -5.3676 O.3     1  UNL1       -0.3112
      5 C          21.6064   72.1828   -5.3324 C.3     1  UNL1        0.1811
      6 O          20.4630   70.3061   -6.3061 O.3     1  UNL1       -0.3308
      7 O          20.6575   71.7770   -8.9119 O.3     1  UNL1       -0.3794
      8 O          18.0836   72.2550   -8.1486 O.3     1  UNL1       -0.3779
      9 C          20.4513   72.2925   -7.5965 C.3     1  UNL1        0.1713
     10 C          19.0373   72.0063   -7.1371 C.3     1  UNL1        0.1895
     11 C          21.2763   71.4548   -6.6291 C.3     1  UNL1        0.1764
     12 C          19.1197   70.5371   -6.7595 C.3     1  UNL1        0.2383
     13 H          20.1402   72.2964   -9.5478 H       1  UNL1        0.2105
     14 H          18.0691   73.2037   -8.3530 H       1  UNL1        0.2106
     15 O          16.4329   69.7699   -7.1711 O.2     1  UNL1       -0.2464
     16 O          15.7052   69.2249   -2.6525 O.2     1  UNL1       -0.2670
     17 N          18.2058   70.1894   -5.7084 N.ar    1  UNL1       -0.2551
     18 N          16.0728   69.5002   -4.9201 N.ar    1  UNL1       -0.2743
     19 C          16.8770   69.8182   -6.0224 C.ar    1  UNL1        0.3323
     20 C          18.6283   70.2164   -4.3849 C.ar    1  UNL1        0.0869
     21 C          17.8502   69.9105   -3.3448 C.ar    1  UNL1        0.0795
     22 C          16.4476   69.5130   -3.5864 C.ar    1  UNL1        0.2626
     23 H          15.1430   69.2407   -5.1136 H       1  UNL1        0.1734
     24 O          22.7622   72.9871   -2.8746 O.3     1  UNL1       -0.2703
     25 P          22.8715   71.5515   -2.1392 P.3     1  UNL1        0.2208
     26 O          24.2107   70.9079   -2.7816 O.co2   1  UNL1       -0.4371
     27 O          21.6464   70.6946   -2.2761 O.2     1  UNL1       -0.5170
     28 O          23.2774   71.9011   -0.6175 O.3     1  UNL1       -0.2858
     29 O          24.6658   70.9744    1.0627 O.3     1  UNL1       -0.3226
     30 O          21.2550   71.8956    3.2042 O.3     1  UNL1       -0.3794
     31 O          21.0569   70.6973    0.5473 O.3     1  UNL1       -0.3775
     32 O          23.6219   73.5670    3.4399 O.3     1  UNL1       -0.3792
     33 C          22.2319   72.0584    2.1760 C.3     1  UNL1        0.1718
     34 C          22.2618   70.8086    1.2959 C.3     1  UNL1        0.1968
     35 C          23.5918   72.2709    2.8451 C.3     1  UNL1        0.1723
     36 C          23.4466   70.8481    0.3298 C.3     1  UNL1        0.2706
     37 C          24.7312   72.1713    1.8350 C.3     1  UNL1        0.1830
     38 H          20.3824   71.7590    2.8027 H       1  UNL1        0.2105
     39 H          20.3009   70.6721    1.1540 H       1  UNL1        0.2106
     40 H          22.9014   73.6436    4.0848 H       1  UNL1        0.2106
     41 O          26.5929   70.8273    2.3140 O.co2   1  UNL1       -0.5466
     42 O          26.5697   72.9272    3.2024 O.co2   1  UNL1       -0.5466
     43 C          26.0478   72.0500    2.5308 C.2     1  UNL1        0.0799
@<TRIPOS>UNITY_ATOM_ATTR
2 1
charge -1
26 1
charge -1
41 1
charge -1
@<TRIPOS>BOND
     1     1     4    1
     2     1    24    1
     3     1     2    1
     4     1     3    2
     5    25    28    1
     6    25    24    1
     7    25    26    1
     8    25    27    2
     9     6    11    1
    10     6    12    1
    11    29    36    1
    12    29    37    1
    13     7     9    1
    14     7    13    1
    15     8    10    1
    16     8    14    1
    17     4     5    1
    18    28    36    1
    19    30    33    1
    20    30    38    1
    21    31    34    1
    22    31    39    1
    23    32    35    1
    24    32    40    1
    25    41    43   ar
    26    15    19    2
    27    42    43   ar
    28    16    22    2
    29    17    12    1
    30    17    19   ar
    31    17    20   ar
    32    18    19   ar
    33    18    22   ar
    34    18    23    1
    35     9    10    1
    36     9    11    1
    37    10    12    1
    38    11     5    1
    39    33    34    1
    40    33    35    1
    41    34    36    1
    42    35    37    1
    43    37    43    1
    44    20    21   ar
    45    21    22   ar
@<TRIPOS>MOLECULE
*****
 43 45 0 0 0
SMALL
GASTEIGER

@<TRIPOS>ATOM
      1 P          22.8283   71.3706   -2.4912 P.3     1  UNL1        0.2189
      2 O          22.7051   72.9791   -2.3633 O.co2   1  UNL1       -0.4371
      3 O          24.0990   70.8807   -3.1214 O.2     1  UNL1       -0.5170
      4 O          21.4604   70.9343   -3.2371 O.3     1  UNL1       -0.3112
      5 C          20.7763   71.9000   -4.0141 C.3     1  UNL1        0.1811
      6 O          18.5456   72.1087   -4.8848 O.3     1  UNL1       -0.3308
      7 O          17.6467   70.6625   -2.4165 O.3     1  UNL1       -0.3794
      8 O          17.6156   68.6951   -4.3045 O.3     1  UNL1       -0.3779
      9 C          18.8334   70.4798   -3.1892 C.3     1  UNL1        0.1713
     10 C          18.5093   69.7730   -4.4883 C.3     1  UNL1        0.1895
     11 C          19.2919   71.8476   -3.6764 C.3     1  UNL1        0.1764
     12 C          17.9087   70.8958   -5.3169 C.3     1  UNL1        0.2383
     13 H          17.3347   69.8020   -2.0942 H       1  UNL1        0.2105
     14 H          18.0446   68.0067   -3.7715 H       1  UNL1        0.2106
     15 O          15.8664   70.7589   -7.2628 O.2     1  UNL1       -0.2464
     16 O          18.9098   70.2302  -10.6836 O.2     1  UNL1       -0.2670
     17 N          18.1393   70.7228   -6.7232 N.ar    1  UNL1       -0.2551
     18 N          17.3841   70.4947   -8.9646 N.ar    1  UNL1       -0.2743
     19 C          17.0434   70.6666   -7.6165 C.ar    1  UNL1        0.3323
     20 C          19.4381   70.6125   -7.2047 C.ar    1  UNL1        0.0869
     21 C          19.7471   70.4490   -8.4925 C.ar    1  UNL1        0.0795
     22 C          18.6604   70.3794   -9.4913 C.ar    1  UNL1        0.2626
     23 H          16.6378   70.4506   -9.6053 H       1  UNL1        0.1734
     24 O          22.5915   70.8667   -0.9737 O.3     1  UNL1       -0.2703
     25 P          21.6511   71.4513    0.2043 P.3     1  UNL1        0.2208
     26 O          21.5800   70.2282    1.2621 O.co2   1  UNL1       -0.4371
     27 O          20.3119   71.9429   -0.2636 O.2     1  UNL1       -0.5170
     28 O          22.5568   72.5690    0.9343 O.3     1  UNL1       -0.2858
     29 O          22.0902   73.6440    2.9924 O.3     1  UNL1       -0.3226
     30 O          24.3913   76.4821    1.0643 O.3     1  UNL1       -0.3794
     31 O          22.3358   75.0034   -0.3926 O.3     1  UNL1       -0.3775
     32 O          25.5395   74.8776    3.1993 O.3     1  UNL1       -0.3792
     33 C          23.9608   75.1635    1.4018 C.3     1  UNL1        0.1718
     34 C          22.4898   74.9925    1.0219 C.3     1  UNL1        0.1968
     35 C          24.1465   74.9767    2.9093 C.3     1  UNL1        0.1723
     36 C          21.9312   73.6801    1.5737 C.3     1  UNL1        0.2706
     37 C          23.4540   73.7097    3.4031 C.3     1  UNL1        0.1830
     38 H          24.2826   76.6238    0.1107 H       1  UNL1        0.2105
     39 H          22.6884   75.8333   -0.7494 H       1  UNL1        0.2106
     40 H          25.9919   75.6778    2.8899 H       1  UNL1        0.2106
     41 O          22.5094   72.7335    5.3152 O.co2   1  UNL1       -0.5466
     42 O          23.9546   74.4673    5.6385 O.co2   1  UNL1       -0.5466
     43 C          23.3561   73.7055    4.8940 C.2     1  UNL1        0.0799
@<TRIPOS>UNITY_ATOM_ATTR
2 1
charge -1
26 1
charge -1
41 1
charge -1
@<TRIPOS>BOND
     1     1     4    1
     2     1    24    1
     3     1     2    1
     4     1     3    2
     5    25    28    1
     6    25    24    1
     7    25    26    1
     8    25    27    2
     9     6    11    1
    10     6    12    1
    11    29    36    1
    12    29    37    1
    13     7     9    1
    14     7    13    1
    15     8    10    1
    16     8    14    1
    17     4     5    1
    18    28    36    1
    19    30    33    1
    20    30    38    1
    21    31    34    1
    22    31    39    1
    23    32    35    1
    24    32    40    1
    25    41    43   ar
    26    15    19    2
    27    42    43   ar
    28    16    22    2
    29    17    12    1
    30    17    19   ar
    31    17    20   ar
    32    18    19   ar
    33    18    22   ar
    34    18    23    1
    35     9    10    1
    36     9    11    1
    37    10    12    1
    38    11     5    1
    39    33    34    1
    40    33    35    1
    41    34    36    1
    42    35    37    1
    43    37    43    1
    44    20    21   ar
    45    21    22   ar
@<TRIPOS>MOLECULE
*****
 43 45 0 0 0
SMALL
GASTEIGER

@<TRIPOS>ATOM
      1 P          23.4065   72.2824   -3.4835 P.3     1  UNL1        0.2189
      2 O          24.0598   73.1894   -4.6538 O.co2   1  UNL1       -0.4371
      3 O          24.1159   70.9876   -3.2149 O.2     1  UNL1       -0.5170
      4 O          21.8515   72.1559   -3.9123 O.3     1  UNL1       -0.3112
      5 C          21.1917   70.9203   -3.7061 C.3     1  UNL1        0.1811
      6 O          19.0755   71.7310   -4.5074 O.3     1  UNL1       -0.3308
      7 O          17.8556   70.3152   -2.1624 O.3     1  UNL1       -0.3794
      8 O          17.3606   68.5956   -4.2200 O.3     1  UNL1       -0.3779
      9 C          18.9660   69.9297   -2.9731 C.3     1  UNL1        0.1713
     10 C          18.4850   69.4438   -4.3239 C.3     1  UNL1        0.1895
     11 C          19.7368   71.1894   -3.3436 C.3     1  UNL1        0.1764
     12 C          18.1693   70.7489   -5.0344 C.3     1  UNL1        0.2383
     13 H          17.3478   69.5268   -1.9131 H       1  UNL1        0.2105
     14 H          17.6131   67.7787   -3.7608 H       1  UNL1        0.2106
     15 O          16.2192   69.7892   -6.8380 O.2     1  UNL1       -0.2464
     16 O          18.9874   70.4446  -10.4645 O.2     1  UNL1       -0.2670
     17 N          18.3540   70.6580   -6.4552 N.ar    1  UNL1       -0.2551
     18 N          17.6002   70.1155   -8.6424 N.ar    1  UNL1       -0.2743
     19 C          17.3110   70.1613   -7.2722 C.ar    1  UNL1        0.3323
     20 C          19.5559   71.0594   -7.0254 C.ar    1  UNL1        0.0869
     21 C          19.8168   71.0100   -8.3332 C.ar    1  UNL1        0.0795
     22 C          18.7803   70.5028   -9.2562 C.ar    1  UNL1        0.2626
     23 H          16.8900   69.7714   -9.2311 H       1  UNL1        0.1734
     24 O          23.3552   73.2957   -2.2251 O.3     1  UNL1       -0.2703
     25 P          22.6094   73.1759   -0.7957 P.3     1  UNL1        0.2208
     26 O          22.5506   71.5783   -0.5419 O.co2   1  UNL1       -0.4371
     27 O          21.2746   73.8607   -0.7383 O.2     1  UNL1       -0.5170
     28 O          23.6870   73.7189    0.2749 O.3     1  UNL1       -0.2858
     29 O          23.9762   73.2871    2.5855 O.3     1  UNL1       -0.3226
     30 O          21.6732   70.0650    1.4100 O.3     1  UNL1       -0.3794
     31 O          23.8798   70.9968   -0.2626 O.3     1  UNL1       -0.3775
     32 O          20.4686   72.2556    2.8934 O.3     1  UNL1       -0.3792
     33 C          22.1411   71.4133    1.3774 C.3     1  UNL1        0.1718
     34 C          23.6391   71.4280    1.0719 C.3     1  UNL1        0.1968
     35 C          21.8710   72.0407    2.7469 C.3     1  UNL1        0.1723
     36 C          24.2210   72.8304    1.2548 C.3     1  UNL1        0.2706
     37 C          22.5880   73.3793    2.8975 C.3     1  UNL1        0.1830
     38 H          21.8344   69.6458    0.5500 H       1  UNL1        0.2105
     39 H          23.5129   70.1076   -0.3857 H       1  UNL1        0.2106
     40 H          20.0005   71.4113    2.7995 H       1  UNL1        0.2106
     41 O          21.3757   74.2978    4.6831 O.co2   1  UNL1       -0.5466
     42 O          23.5570   73.7606    5.0739 O.co2   1  UNL1       -0.5466
     43 C          22.5935   73.8205    4.3249 C.2     1  UNL1        0.0799
@<TRIPOS>UNITY_ATOM_ATTR
2 1
charge -1
26 1
charge -1
41 1
charge -1
@<TRIPOS>BOND
     1     1     4    1
     2     1    24    1
     3     1     2    1
     4     1     3    2
     5    25    28    1
     6    25    24    1
     7    25    26    1
     8    25    27    2
     9     6    11    1
    10     6    12    1
    11    29    36    1
    12    29    37    1
    13     7     9    1
    14     7    13    1
    15     8    10    1
    16     8    14    1
    17     4     5    1
    18    28    36    1
    19    30    33    1
    20    30    38    1
    21    31    34    1
    22    31    39    1
    23    32    35    1
    24    32    40    1
    25    41    43   ar
    26    15    19    2
    27    42    43   ar
    28    16    22    2
    29    17    12    1
    30    17    19   ar
    31    17    20   ar
    32    18    19   ar
    33    18    22   ar
    34    18    23    1
    35     9    10    1
    36     9    11    1
    37    10    12    1
    38    11     5    1
    39    33    34    1
    40    33    35    1
    41    34    36    1
    42    35    37    1
    43    37    43    1
    44    20    21   ar
    45    21    22   ar
@<TRIPOS>MOLECULE
*****
 43 45 0 0 0
SMALL
GASTEIGER

@<TRIPOS>ATOM
      1 P          21.8221   71.3930   -0.0199 P.3     1  UNL1        0.2189
      2 O          20.7674   72.6116    0.1272 O.co2   1  UNL1       -0.4371
      3 O          21.5677   70.2224    0.8837 O.2     1  UNL1       -0.5170
      4 O          23.2652   72.1063    0.1437 O.3     1  UNL1       -0.3112
      5 C          23.9681   71.9388    1.3612 C.3     1  UNL1        0.1811
      6 O          24.5113   73.0109    3.4428 O.3     1  UNL1       -0.3308
      7 O          23.2587   75.4773    2.2854 O.3     1  UNL1       -0.3794
      8 O          25.9241   75.9577    1.9681 O.3     1  UNL1       -0.3779
      9 C          24.0319   74.4671    1.6371 C.3     1  UNL1        0.1713
     10 C          25.4945   74.6127    2.0001 C.3     1  UNL1        0.1895
     11 C          23.6787   73.1275    2.2687 C.3     1  UNL1        0.1764
     12 C          25.5329   74.0197    3.3983 C.3     1  UNL1        0.2383
     13 H          23.4672   76.3425    1.8986 H       1  UNL1        0.2105
     14 H          25.8815   76.2891    1.0568 H       1  UNL1        0.2106
     15 O          27.3677   75.0303    5.2928 O.2     1  UNL1       -0.2464
     16 O          30.3609   71.6199    4.4842 O.2     1  UNL1       -0.2670
     17 N          26.7992   73.4157    3.7027 N.ar    1  UNL1       -0.2551
     18 N          28.8572   73.3313    4.8875 N.ar    1  UNL1       -0.2743
     19 C          27.6471   74.0035    4.6710 C.ar    1  UNL1        0.3323
     20 C          27.1890   72.2542    3.0471 C.ar    1  UNL1        0.0869
     21 C          28.3456   71.6248    3.2642 C.ar    1  UNL1        0.0795
     22 C          29.2891   72.1741    4.2599 C.ar    1  UNL1        0.2626
     23 H          29.4650   73.7229    5.5558 H       1  UNL1        0.1734
     24 O          21.7630   71.0505   -1.5985 O.3     1  UNL1       -0.2703
     25 P          21.8794   72.0063   -2.8972 P.3     1  UNL1        0.2208
     26 O          23.1046   71.3525   -3.7290 O.co2   1  UNL1       -0.4371
     27 O          22.0571   73.4621   -2.5763 O.2     1  UNL1       -0.5170
     28 O          20.5671   71.6690   -3.7726 O.3     1  UNL1       -0.2858
     29 O          19.4673   69.6342   -4.2816 O.3     1  UNL1       -0.3226
     30 O          18.9972   71.7470   -7.8006 O.3     1  UNL1       -0.3794
     31 O          21.5456   71.7959   -6.3731 O.3     1  UNL1       -0.3775
     32 O          16.7606   71.4489   -5.9677 O.3     1  UNL1       -0.3792
     33 C          19.1292   71.5791   -6.3891 C.3     1  UNL1        0.1718
     34 C          20.4696   70.9135   -6.0760 C.3     1  UNL1        0.1968
     35 C          17.9730   70.7000   -5.9072 C.3     1  UNL1        0.1723
     36 C          20.5489   70.5094   -4.6032 C.3     1  UNL1        0.2706
     37 C          18.1881   70.2353   -4.4698 C.3     1  UNL1        0.1830
     38 H          19.7215   72.3025   -8.1295 H       1  UNL1        0.2105
     39 H          21.5013   72.0566   -7.3061 H       1  UNL1        0.2106
     40 H          16.6120   71.7508   -6.8775 H       1  UNL1        0.2106
     41 O          17.5611   68.5902   -2.9199 O.co2   1  UNL1       -0.5466
     42 O          16.3108   68.7604   -4.8190 O.co2   1  UNL1       -0.5466
     43 C          17.2440   69.1306   -4.1225 C.2     1  UNL1        0.0799
@<TRIPOS>UNITY_ATOM_ATTR
2 1
charge -1
26 1
charge -1
41 1
charge -1
@<TRIPOS>BOND
     1     1     4    1
     2     1    24    1
     3     1     2    1
     4     1     3    2
     5    25    28    1
     6    25    24    1
     7    25    26    1
     8    25    27    2
     9     6    11    1
    10     6    12    1
    11    29    36    1
    12    29    37    1
    13     7     9    1
    14     7    13    1
    15     8    10    1
    16     8    14    1
    17     4     5    1
    18    28    36    1
    19    30    33    1
    20    30    38    1
    21    31    34    1
    22    31    39    1
    23    32    35    1
    24    32    40    1
    25    41    43   ar
    26    15    19    2
    27    42    43   ar
    28    16    22    2
    29    17    12    1
    30    17    19   ar
    31    17    20   ar
    32    18    19   ar
    33    18    22   ar
    34    18    23    1
    35     9    10    1
    36     9    11    1
    37    10    12    1
    38    11     5    1
    39    33    34    1
    40    33    35    1
    41    34    36    1
    42    35    37    1
    43    37    43    1
    44    20    21   ar
    45    21    22   ar
@<TRIPOS>MOLECULE
*****
 43 45 0 0 0
SMALL
GASTEIGER

@<TRIPOS>ATOM
      1 P          22.7916   72.4741   -4.0121 P.3     1  UNL1        0.2189
      2 O          23.3782   72.8572   -5.4708 O.co2   1  UNL1       -0.4371
      3 O          23.4981   71.3445   -3.3217 O.2     1  UNL1       -0.5170
      4 O          21.2096   72.2579   -4.2741 O.3     1  UNL1       -0.3112
      5 C          20.6032   71.0674   -3.8055 C.3     1  UNL1        0.1811
      6 O          18.5700   71.8177   -4.8451 O.3     1  UNL1       -0.3308
      7 O          17.1334   70.4292   -2.6090 O.3     1  UNL1       -0.3794
      8 O          16.8899   68.6556   -4.6660 O.3     1  UNL1       -0.3779
      9 C          18.3301   70.0485   -3.2884 C.3     1  UNL1        0.1713
     10 C          18.0038   69.5237   -4.6706 C.3     1  UNL1        0.1895
     11 C          19.1136   71.3150   -3.6053 C.3     1  UNL1        0.1764
     12 C          17.7423   70.8065   -5.4414 C.3     1  UNL1        0.2383
     13 H          16.6159   69.6364   -2.3961 H       1  UNL1        0.2105
     14 H          17.1066   67.8542   -4.1633 H       1  UNL1        0.2106
     15 O          15.8622   70.3829   -7.5059 O.2     1  UNL1       -0.2464
     16 O          19.1449   70.3687  -10.7412 O.2     1  UNL1       -0.2670
     17 N          18.0783   70.6883   -6.8320 N.ar    1  UNL1       -0.2551
     18 N          17.4990   70.3752   -9.1152 N.ar    1  UNL1       -0.2743
     19 C          17.0580   70.4762   -7.7892 C.ar    1  UNL1        0.3323
     20 C          19.4045   70.7840   -7.2357 C.ar    1  UNL1        0.0869
     21 C          19.8095   70.6858   -8.5034 C.ar    1  UNL1        0.0795
     22 C          18.8064   70.4632   -9.5653 C.ar    1  UNL1        0.2626
     23 H          16.8070   70.2255   -9.7993 H       1  UNL1        0.1734
     24 O          22.8396   73.8825   -3.2202 O.3     1  UNL1       -0.2703
     25 P          24.0780   74.6925   -2.5692 P.3     1  UNL1        0.2208
     26 O          23.5042   76.2001   -2.4350 O.co2   1  UNL1       -0.4371
     27 O          25.3594   74.5852   -3.3442 O.2     1  UNL1       -0.5170
     28 O          24.1666   74.1538   -1.0512 O.3     1  UNL1       -0.2858
     29 O          23.7348   72.1615    0.1544 O.3     1  UNL1       -0.3226
     30 O          21.8988   74.9975    2.5322 O.3     1  UNL1       -0.3794
     31 O          21.6452   75.1143   -0.3758 O.3     1  UNL1       -0.3775
     32 O          24.4508   73.8559    3.3291 O.3     1  UNL1       -0.3792
     33 C          22.8768   74.4963    1.6210 C.3     1  UNL1        0.1718
     34 C          22.1873   74.0135    0.3447 C.3     1  UNL1        0.1968
     35 C          23.6077   73.3371    2.3022 C.3     1  UNL1        0.1723
     36 C          23.1684   73.2628   -0.5568 C.3     1  UNL1        0.2706
     37 C          24.4687   72.5613    1.3096 C.3     1  UNL1        0.1830
     38 H          21.4214   75.7352    2.1208 H       1  UNL1        0.2105
     39 H          21.0219   75.5953    0.1903 H       1  UNL1        0.2106
     40 H          23.9150   74.3521    3.9674 H       1  UNL1        0.2106
     41 O          23.9970   70.8021    2.7875 O.co2   1  UNL1       -0.5466
     42 O          25.9461   70.6776    1.6108 O.co2   1  UNL1       -0.5466
     43 C          24.9094   71.2589    1.8944 C.2     1  UNL1        0.0799
@<TRIPOS>UNITY_ATOM_ATTR
2 1
charge -1
26 1
charge -1
41 1
charge -1
@<TRIPOS>BOND
     1     1     4    1
     2     1    24    1
     3     1     2    1
     4     1     3    2
     5    25    28    1
     6    25    24    1
     7    25    26    1
     8    25    27    2
     9     6    11    1
    10     6    12    1
    11    29    36    1
    12    29    37    1
    13     7     9    1
    14     7    13    1
    15     8    10    1
    16     8    14    1
    17     4     5    1
    18    28    36    1
    19    30    33    1
    20    30    38    1
    21    31    34    1
    22    31    39    1
    23    32    35    1
    24    32    40    1
    25    41    43   ar
    26    15    19    2
    27    42    43   ar
    28    16    22    2
    29    17    12    1
    30    17    19   ar
    31    17    20   ar
    32    18    19   ar
    33    18    22   ar
    34    18    23    1
    35     9    10    1
    36     9    11    1
    37    10    12    1
    38    11     5    1
    39    33    34    1
    40    33    35    1
    41    34    36    1
    42    35    37    1
    43    37    43    1
    44    20    21   ar
    45    21    22   ar
@<TRIPOS>MOLECULE
*****
 43 45 0 0 0
SMALL
GASTEIGER

@<TRIPOS>ATOM
      1 P          21.2235   73.4514   -4.8153 P.3     1  UNL1        0.2189
      2 O          20.5426   74.7380   -5.5223 O.co2   1  UNL1       -0.4371
      3 O          21.7122   72.3936   -5.7608 O.2     1  UNL1       -0.5170
      4 O          20.1189   72.9719   -3.7346 O.3     1  UNL1       -0.3112
      5 C          19.6508   71.6370   -3.7932 C.3     1  UNL1        0.1811
      6 O          17.7080   71.9976   -5.1618 O.3     1  UNL1       -0.3308
      7 O          16.1808   70.4939   -3.0646 O.3     1  UNL1       -0.3794
      8 O          16.5312   68.6144   -5.0089 O.3     1  UNL1       -0.3779
      9 C          17.5113   70.2842   -3.5381 C.3     1  UNL1        0.1713
     10 C          17.4846   69.6519   -4.9135 C.3     1  UNL1        0.1895
     11 C          18.1279   71.6464   -3.8255 C.3     1  UNL1        0.1764
     12 C          17.1477   70.8389   -5.7998 C.3     1  UNL1        0.2383
     13 H          15.7662   69.6375   -2.8741 H       1  UNL1        0.2105
     14 H          16.7906   67.8824   -4.4267 H       1  UNL1        0.2106
     15 O          15.6203   70.6650   -8.1691 O.2     1  UNL1       -0.2464
     16 O          19.3949   70.3675  -10.7973 O.2     1  UNL1       -0.2670
     17 N          17.7057   70.7154   -7.1167 N.ar    1  UNL1       -0.2551
     18 N          17.5017   70.5160   -9.4757 N.ar    1  UNL1       -0.2743
     19 C          16.8503   70.6352   -8.2410 C.ar    1  UNL1        0.3323
     20 C          19.0845   70.6765   -7.2850 C.ar    1  UNL1        0.0869
     21 C          19.6908   70.5627   -8.4683 C.ar    1  UNL1        0.0795
     22 C          18.8694   70.4723   -9.6932 C.ar    1  UNL1        0.2626
     23 H          16.9271   70.4564  -10.2729 H       1  UNL1        0.1734
     24 O          22.3735   74.1116   -3.8909 O.3     1  UNL1       -0.2703
     25 P          23.6805   73.4613   -3.1962 P.3     1  UNL1        0.2208
     26 O          24.5359   74.7552   -2.7334 O.co2   1  UNL1       -0.4371
     27 O          24.4331   72.5045   -4.0749 O.2     1  UNL1       -0.5170
     28 O          23.1359   72.8196   -1.8200 O.3     1  UNL1       -0.2858
     29 O          23.0036   74.4562   -0.1132 O.3     1  UNL1       -0.3226
     30 O          22.0011   71.0154    1.9420 O.3     1  UNL1       -0.3794
     31 O          24.1849   70.9982    0.0017 O.3     1  UNL1       -0.3775
     32 O          19.9388   72.9254    1.2005 O.3     1  UNL1       -0.3792
     33 C          22.0754   71.8825    0.8104 C.3     1  UNL1        0.1718
     34 C          23.5405   72.1720    0.4829 C.3     1  UNL1        0.1968
     35 C          21.3417   73.1794    1.1593 C.3     1  UNL1        0.1723
     36 C          23.6580   73.2728   -0.5723 C.3     1  UNL1        0.2706
     37 C          21.6102   74.2674    0.1236 C.3     1  UNL1        0.1830
     38 H          22.4608   70.1844    1.7436 H       1  UNL1        0.2105
     39 H          24.1140   70.2955    0.6661 H       1  UNL1        0.2106
     40 H          19.7543   72.2345    1.8558 H       1  UNL1        0.2106
     41 O          21.3193   76.5507   -0.3273 O.co2   1  UNL1       -0.5466
     42 O          20.7377   75.8188    1.7524 O.co2   1  UNL1       -0.5466
     43 C          21.1722   75.6026    0.6310 C.2     1  UNL1        0.0799
@<TRIPOS>UNITY_ATOM_ATTR
2 1
charge -1
26 1
charge -1
41 1
charge -1
@<TRIPOS>BOND
     1     1     4    1
     2     1    24    1
     3     1     2    1
     4     1     3    2
     5    25    28    1
     6    25    24    1
     7    25    26    1
     8    25    27    2
     9     6    11    1
    10     6    12    1
    11    29    36    1
    12    29    37    1
    13     7     9    1
    14     7    13    1
    15     8    10    1
    16     8    14    1
    17     4     5    1
    18    28    36    1
    19    30    33    1
    20    30    38    1
    21    31    34    1
    22    31    39    1
    23    32    35    1
    24    32    40    1
    25    41    43   ar
    26    15    19    2
    27    42    43   ar
    28    16    22    2
    29    17    12    1
    30    17    19   ar
    31    17    20   ar
    32    18    19   ar
    33    18    22   ar
    34    18    23    1
    35     9    10    1
    36     9    11    1
    37    10    12    1
    38    11     5    1
    39    33    34    1
    40    33    35    1
    41    34    36    1
    42    35    37    1
    43    37    43    1
    44    20    21   ar
    45    21    22   ar
@<TRIPOS>MOLECULE
*****
 43 45 0 0 0
SMALL
GASTEIGER

@<TRIPOS>ATOM
      1 P          23.4187   72.0055   -3.3823 P.3     1  UNL1        0.2189
      2 O          24.1340   72.9587   -4.4771 O.co2   1  UNL1       -0.4371
      3 O          24.2293   70.8194   -2.9488 O.2     1  UNL1       -0.5170
      4 O          21.9792   71.6700   -4.0405 O.3     1  UNL1       -0.3112
      5 C          21.4866   72.5213   -5.0590 C.3     1  UNL1        0.1811
      6 O          20.5427   70.5214   -6.0011 O.3     1  UNL1       -0.3308
      7 O          20.8030   71.8757   -8.6637 O.3     1  UNL1       -0.3794
      8 O          18.1578   72.2006   -8.0860 O.3     1  UNL1       -0.3779
      9 C          20.4762   72.4374   -7.3923 C.3     1  UNL1        0.1713
     10 C          19.0588   72.0711   -7.0062 C.3     1  UNL1        0.1895
     11 C          21.2931   71.7096   -6.3334 C.3     1  UNL1        0.1764
     12 C          19.2189   70.6317   -6.5476 C.3     1  UNL1        0.2383
     13 H          20.2931   72.3248   -9.3566 H       1  UNL1        0.2105
     14 H          18.0904   73.1348   -8.3405 H       1  UNL1        0.2106
     15 O          16.6205   69.6625   -7.0823 O.2     1  UNL1       -0.2464
     16 O          15.6450   69.2719   -2.5946 O.2     1  UNL1       -0.2670
     17 N          18.2652   70.2690   -5.5377 N.ar    1  UNL1       -0.2551
     18 N          16.1368   69.4699   -4.8467 N.ar    1  UNL1       -0.2743
     19 C          16.9866   69.7930   -5.9127 C.ar    1  UNL1        0.3323
     20 C          18.6000   70.3846   -4.1940 C.ar    1  UNL1        0.0869
     21 C          17.7793   70.0726   -3.1891 C.ar    1  UNL1        0.0795
     22 C          16.4245   69.5686   -3.4950 C.ar    1  UNL1        0.2626
     23 H          15.2404   69.1382   -5.0829 H       1  UNL1        0.1734
     24 O          23.0438   73.0354   -2.1942 O.3     1  UNL1       -0.2703
     25 P          23.7568   74.4036   -1.7111 P.3     1  UNL1        0.2208
     26 O          22.5084   75.3372   -1.2751 O.co2   1  UNL1       -0.4371
     27 O          24.6624   75.0214   -2.7369 O.2     1  UNL1       -0.5170
     28 O          24.4821   74.0190   -0.3225 O.3     1  UNL1       -0.2858
     29 O          22.7551   73.3087    1.1342 O.3     1  UNL1       -0.3226
     30 O          26.1161   72.7126    3.4615 O.3     1  UNL1       -0.3794
     31 O          25.8516   75.1228    1.8321 O.3     1  UNL1       -0.3775
     32 O          24.7735   70.4473    2.2298 O.3     1  UNL1       -0.3792
     33 C          25.3665   72.7825    2.2486 C.3     1  UNL1        0.1718
     34 C          24.8025   74.1930    2.0761 C.3     1  UNL1        0.1968
     35 C          24.2297   71.7617    2.3356 C.3     1  UNL1        0.1723
     36 C          23.8092   74.2468    0.9145 C.3     1  UNL1        0.2706
     37 C          23.2146   71.9613    1.2139 C.3     1  UNL1        0.1830
     38 H          26.8443   73.3528    3.4292 H       1  UNL1        0.2105
     39 H          26.4858   75.0938    2.5651 H       1  UNL1        0.2106
     40 H          25.4214   70.3074    2.9381 H       1  UNL1        0.2106
     41 O          21.2083   71.8297    2.4217 O.co2   1  UNL1       -0.5466
     42 O          21.6503   70.1431    0.9524 O.co2   1  UNL1       -0.5466
     43 C          21.9618   71.1953    1.4897 C.2     1  UNL1        0.0799
@<TRIPOS>UNITY_ATOM_ATTR
2 1
charge -1
26 1
charge -1
41 1
charge -1
@<TRIPOS>BOND
     1     1     4    1
     2     1    24    1
     3     1     2    1
     4     1     3    2
     5    25    28    1
     6    25    24    1
     7    25    26    1
     8    25    27    2
     9     6    11    1
    10     6    12    1
    11    29    36    1
    12    29    37    1
    13     7     9    1
    14     7    13    1
    15     8    10    1
    16     8    14    1
    17     4     5    1
    18    28    36    1
    19    30    33    1
    20    30    38    1
    21    31    34    1
    22    31    39    1
    23    32    35    1
    24    32    40    1
    25    41    43   ar
    26    15    19    2
    27    42    43   ar
    28    16    22    2
    29    17    12    1
    30    17    19   ar
    31    17    20   ar
    32    18    19   ar
    33    18    22   ar
    34    18    23    1
    35     9    10    1
    36     9    11    1
    37    10    12    1
    38    11     5    1
    39    33    34    1
    40    33    35    1
    41    34    36    1
    42    35    37    1
    43    37    43    1
    44    20    21   ar
    45    21    22   ar
@<TRIPOS>MOLECULE
*****
 43 45 0 0 0
SMALL
GASTEIGER

@<TRIPOS>ATOM
      1 P          16.0944   69.7266   -2.2411 P.3     1  UNL1        0.2189
      2 O          15.4252   71.1691   -1.9402 O.co2   1  UNL1       -0.4371
      3 O          15.8368   69.1831   -3.6159 O.2     1  UNL1       -0.5170
      4 O          15.5901   68.8008   -1.0137 O.3     1  UNL1       -0.3112
      5 C          14.5658   69.2950   -0.1704 C.3     1  UNL1        0.1811
      6 O          12.8148   67.6484   -0.1639 O.3     1  UNL1       -0.3308
      7 O          11.0797   69.7591   -1.3991 O.3     1  UNL1       -0.3794
      8 O          10.3033   69.8040    1.2146 O.3     1  UNL1       -0.3779
      9 C          12.1055   69.8944   -0.4152 C.3     1  UNL1        0.1713
     10 C          11.6189   69.3808    0.9233 C.3     1  UNL1        0.1895
     11 C          13.2131   68.9055   -0.7524 C.3     1  UNL1        0.1764
     12 C          11.7222   67.8762    0.7403 C.3     1  UNL1        0.2383
     13 H          10.3607   70.3811   -1.2047 H       1  UNL1        0.2105
     14 H          10.2903   70.7684    1.3222 H       1  UNL1        0.2106
     15 O          14.3041   67.2254    1.6821 O.2     1  UNL1       -0.2464
     16 O          12.6162   65.2461    5.4870 O.2     1  UNL1       -0.2670
     17 N          11.9863   67.1910    1.9739 N.ar    1  UNL1       -0.2551
     18 N          13.4609   66.2393    3.5757 N.ar    1  UNL1       -0.2743
     19 C          13.3201   66.9120    2.3548 C.ar    1  UNL1        0.3323
     20 C          10.9317   66.8046    2.7922 C.ar    1  UNL1        0.0869
     21 C          11.0817   66.1641    3.9532 C.ar    1  UNL1        0.0795
     22 C          12.4429   65.8340    4.4237 C.ar    1  UNL1        0.2626
     23 H          14.3802   66.0323    3.8610 H       1  UNL1        0.1734
     24 O          17.6543   69.9709   -1.8950 O.3     1  UNL1       -0.2703
     25 P          18.6341   71.2124   -2.2302 P.3     1  UNL1        0.2208
     26 O          20.1077   70.5444   -2.1808 O.co2   1  UNL1       -0.4371
     27 O          18.4609   72.3959   -1.3228 O.2     1  UNL1       -0.5170
     28 O          18.3804   71.5238   -3.7926 O.3     1  UNL1       -0.2858
     29 O          18.1992   70.1688   -5.7265 O.3     1  UNL1       -0.3226
     30 O          20.2854   73.4271   -7.1754 O.3     1  UNL1       -0.3794
     31 O          20.9398   72.2915   -4.5646 O.3     1  UNL1       -0.3775
     32 O          17.4622   73.1103   -7.7921 O.3     1  UNL1       -0.3792
     33 C          19.3499   72.7452   -6.3400 C.3     1  UNL1        0.1718
     34 C          20.0781   71.6813   -5.5184 C.3     1  UNL1        0.1968
     35 C          18.2981   72.0943   -7.2411 C.3     1  UNL1        0.1723
     36 C          19.0833   70.7798   -4.7860 C.3     1  UNL1        0.2706
     37 C          17.4257   71.1148   -6.4613 C.3     1  UNL1        0.1830
     38 H          20.9637   73.8488   -6.6245 H       1  UNL1        0.2105
     39 H          21.5736   72.8652   -5.0224 H       1  UNL1        0.2106
     40 H          18.0053   73.7405   -8.2909 H       1  UNL1        0.2106
     41 O          17.1258   70.3335   -8.6525 O.co2   1  UNL1       -0.5466
     42 O          15.6796   69.5636   -7.0667 O.co2   1  UNL1       -0.5466
     43 C          16.6355   70.2523   -7.3908 C.2     1  UNL1        0.0799
@<TRIPOS>UNITY_ATOM_ATTR
2 1
charge -1
26 1
charge -1
41 1
charge -1
@<TRIPOS>BOND
     1     1     4    1
     2     1    24    1
     3     1     2    1
     4     1     3    2
     5    25    28    1
     6    25    24    1
     7    25    26    1
     8    25    27    2
     9     6    11    1
    10     6    12    1
    11    29    36    1
    12    29    37    1
    13     7     9    1
    14     7    13    1
    15     8    10    1
    16     8    14    1
    17     4     5    1
    18    28    36    1
    19    30    33    1
    20    30    38    1
    21    31    34    1
    22    31    39    1
    23    32    35    1
    24    32    40    1
    25    41    43   ar
    26    15    19    2
    27    42    43   ar
    28    16    22    2
    29    17    12    1
    30    17    19   ar
    31    17    20   ar
    32    18    19   ar
    33    18    22   ar
    34    18    23    1
    35     9    10    1
    36     9    11    1
    37    10    12    1
    38    11     5    1
    39    33    34    1
    40    33    35    1
    41    34    36    1
    42    35    37    1
    43    37    43    1
    44    20    21   ar
    45    21    22   ar
@<TRIPOS>MOLECULE
*****
 43 45 0 0 0
SMALL
GASTEIGER

@<TRIPOS>ATOM
      1 P          20.5430   71.5093   -1.3655 P.3     1  UNL1        0.2189
      2 O          19.4877   70.2832   -1.3221 O.co2   1  UNL1       -0.4371
      3 O          19.9861   72.8395   -0.9503 O.2     1  UNL1       -0.5170
      4 O          21.1572   71.4406   -2.8608 O.3     1  UNL1       -0.3112
      5 C          20.8519   72.4857   -3.7658 C.3     1  UNL1        0.1811
      6 O          21.2294   71.4881   -5.9199 O.3     1  UNL1       -0.3308
      7 O          23.2082   73.6920   -6.3870 O.3     1  UNL1       -0.3794
      8 O          21.0221   74.5507   -7.7724 O.3     1  UNL1       -0.3779
      9 C          21.9642   73.7279   -5.6873 C.3     1  UNL1        0.1713
     10 C          20.8106   73.6970   -6.6674 C.3     1  UNL1        0.1895
     11 C          21.7975   72.4023   -4.9572 C.3     1  UNL1        0.1764
     12 C          20.7702   72.2303   -7.0608 C.3     1  UNL1        0.2383
     13 H          23.3370   74.5287   -6.8614 H       1  UNL1        0.2105
     14 H          21.0395   75.4727   -7.4700 H       1  UNL1        0.2106
     15 O          20.1999   69.9239   -8.5880 O.2     1  UNL1       -0.2464
     16 O          15.6554   70.6400   -8.3087 O.2     1  UNL1       -0.2670
     17 N          19.4468   71.7907   -7.4020 N.ar    1  UNL1       -0.2551
     18 N          17.9371   70.2833   -8.4483 N.ar    1  UNL1       -0.2743
     19 C          19.2696   70.6182   -8.1739 C.ar    1  UNL1        0.3323
     20 C          18.3425   72.5164   -6.9721 C.ar    1  UNL1        0.0869
     21 C          17.0783   72.1847   -7.2415 C.ar    1  UNL1        0.0795
     22 C          16.8062   70.9738   -8.0434 C.ar    1  UNL1        0.2626
     23 H          17.7886   69.4720   -8.9860 H       1  UNL1        0.1734
     24 O          21.7605   70.9729   -0.4475 O.3     1  UNL1       -0.2703
     25 P          23.1786   71.6482   -0.0647 P.3     1  UNL1        0.2208
     26 O          23.3265   72.8390   -1.1512 O.co2   1  UNL1       -0.4371
     27 O          24.3317   70.6871   -0.0398 O.2     1  UNL1       -0.5170
     28 O          22.9074   72.4048    1.3341 O.3     1  UNL1       -0.2858
     29 O          24.7088   72.0044    2.8186 O.3     1  UNL1       -0.3226
     30 O          22.1565   74.2385    5.1771 O.3     1  UNL1       -0.3794
     31 O          21.1082   72.1380    3.4383 O.3     1  UNL1       -0.3775
     32 O          24.5420   75.4573    4.0481 O.3     1  UNL1       -0.3792
     33 C          22.7761   73.8206    3.9608 C.3     1  UNL1        0.1718
     34 C          22.4880   72.3381    3.7227 C.3     1  UNL1        0.1968
     35 C          24.2826   74.0555    4.0925 C.3     1  UNL1        0.1723
     36 C          23.3198   71.7992    2.5580 C.3     1  UNL1        0.2706
     37 C          25.0526   73.3809    2.9608 C.3     1  UNL1        0.1830
     38 H          21.1984   74.0985    5.1168 H       1  UNL1        0.2105
     39 H          20.5744   72.4779    4.1731 H       1  UNL1        0.2106
     40 H          24.0576   75.8986    4.7632 H       1  UNL1        0.2106
     41 O          27.0277   72.1157    2.9587 O.co2   1  UNL1       -0.5466
     42 O          27.1640   74.2555    3.7344 O.co2   1  UNL1       -0.5466
     43 C          26.5137   73.3316    3.2691 C.2     1  UNL1        0.0799
@<TRIPOS>UNITY_ATOM_ATTR
2 1
charge -1
26 1
charge -1
41 1
charge -1
@<TRIPOS>BOND
     1     1     4    1
     2     1    24    1
     3     1     2    1
     4     1     3    2
     5    25    28    1
     6    25    24    1
     7    25    26    1
     8    25    27    2
     9     6    11    1
    10     6    12    1
    11    29    36    1
    12    29    37    1
    13     7     9    1
    14     7    13    1
    15     8    10    1
    16     8    14    1
    17     4     5    1
    18    28    36    1
    19    30    33    1
    20    30    38    1
    21    31    34    1
    22    31    39    1
    23    32    35    1
    24    32    40    1
    25    41    43   ar
    26    15    19    2
    27    42    43   ar
    28    16    22    2
    29    17    12    1
    30    17    19   ar
    31    17    20   ar
    32    18    19   ar
    33    18    22   ar
    34    18    23    1
    35     9    10    1
    36     9    11    1
    37    10    12    1
    38    11     5    1
    39    33    34    1
    40    33    35    1
    41    34    36    1
    42    35    37    1
    43    37    43    1
    44    20    21   ar
    45    21    22   ar
@<TRIPOS>MOLECULE
*****
 43 45 0 0 0
SMALL
GASTEIGER

@<TRIPOS>ATOM
      1 P          21.6683   71.3226    0.0981 P.3     1  UNL1        0.2189
      2 O          20.2488   72.0373   -0.2072 O.co2   1  UNL1       -0.4371
      3 O          21.5836   70.0732    0.9249 O.2     1  UNL1       -0.5170
      4 O          22.5776   72.5115    0.7126 O.3     1  UNL1       -0.3112
      5 C          23.1612   72.3255    1.9890 C.3     1  UNL1        0.1811
      6 O          22.6732   72.2811    4.3422 O.3     1  UNL1       -0.3308
      7 O          19.8901   73.1070    3.5914 O.3     1  UNL1       -0.3794
      8 O          21.0048   75.4535    4.4205 O.3     1  UNL1       -0.3779
      9 C          21.1346   73.4834    3.0014 C.3     1  UNL1        0.1713
     10 C          21.8640   74.4628    3.8963 C.3     1  UNL1        0.1895
     11 C          22.0565   72.2721    3.0365 C.3     1  UNL1        0.1764
     12 C          22.4270   73.5488    4.9713 C.3     1  UNL1        0.2383
     13 H          19.2843   73.8650    3.5804 H       1  UNL1        0.2105
     14 H          20.6730   76.0093    3.6973 H       1  UNL1        0.2106
     15 O          22.8714   74.0093    7.7221 O.2     1  UNL1       -0.2464
     16 O          27.1854   75.4479    6.9711 O.2     1  UNL1       -0.2670
     17 N          23.6570   74.0434    5.5221 N.ar    1  UNL1       -0.2551
     18 N          25.0192   74.7263    7.3453 N.ar    1  UNL1       -0.2743
     19 C          23.7766   74.2400    6.9182 C.ar    1  UNL1        0.3323
     20 C          24.7282   74.3265    4.6834 C.ar    1  UNL1        0.0869
     21 C          25.9065   74.7895    5.1053 C.ar    1  UNL1        0.0795
     22 C          26.1138   75.0232    6.5495 C.ar    1  UNL1        0.2626
     23 H          25.1257   74.8731    8.3130 H       1  UNL1        0.1734
     24 O          22.2936   71.1124   -1.3776 O.3     1  UNL1       -0.2703
     25 P          22.8923   72.1758   -2.4380 P.3     1  UNL1        0.2208
     26 O          24.0125   71.3171   -3.2305 O.co2   1  UNL1       -0.4371
     27 O          23.4083   73.4412   -1.8165 O.2     1  UNL1       -0.5170
     28 O          21.7091   72.3921   -3.5131 O.3     1  UNL1       -0.2858
     29 O          20.2544   70.9402   -4.6899 O.3     1  UNL1       -0.3226
     30 O          21.1483   73.7563   -7.5775 O.3     1  UNL1       -0.3794
     31 O          23.2378   72.7310   -5.8118 O.3     1  UNL1       -0.3775
     32 O          18.5634   73.7994   -6.2481 O.3     1  UNL1       -0.3792
     33 C          20.9153   73.2762   -6.2534 C.3     1  UNL1        0.1718
     34 C          21.9296   72.1819   -5.9199 C.3     1  UNL1        0.1968
     35 C          19.4917   72.7176   -6.1967 C.3     1  UNL1        0.1723
     36 C          21.5714   71.4859   -4.6061 C.3     1  UNL1        0.2706
     37 C          19.2528   71.9306   -4.9113 C.3     1  UNL1        0.1830
     38 H          22.0473   74.1161   -7.6376 H       1  UNL1        0.2105
     39 H          23.4715   73.1744   -6.6420 H       1  UNL1        0.2106
     40 H          18.7049   74.3085   -7.0615 H       1  UNL1        0.2106
     41 O          17.7607   70.7624   -6.2934 O.co2   1  UNL1       -0.5466
     42 O          17.2825   70.8248   -4.0649 O.co2   1  UNL1       -0.5466
     43 C          17.9990   71.1240   -5.0084 C.2     1  UNL1        0.0799
@<TRIPOS>UNITY_ATOM_ATTR
2 1
charge -1
26 1
charge -1
41 1
charge -1
@<TRIPOS>BOND
     1     1     4    1
     2     1    24    1
     3     1     2    1
     4     1     3    2
     5    25    28    1
     6    25    24    1
     7    25    26    1
     8    25    27    2
     9     6    11    1
    10     6    12    1
    11    29    36    1
    12    29    37    1
    13     7     9    1
    14     7    13    1
    15     8    10    1
    16     8    14    1
    17     4     5    1
    18    28    36    1
    19    30    33    1
    20    30    38    1
    21    31    34    1
    22    31    39    1
    23    32    35    1
    24    32    40    1
    25    41    43   ar
    26    15    19    2
    27    42    43   ar
    28    16    22    2
    29    17    12    1
    30    17    19   ar
    31    17    20   ar
    32    18    19   ar
    33    18    22   ar
    34    18    23    1
    35     9    10    1
    36     9    11    1
    37    10    12    1
    38    11     5    1
    39    33    34    1
    40    33    35    1
    41    34    36    1
    42    35    37    1
    43    37    43    1
    44    20    21   ar
    45    21    22   ar
@<TRIPOS>MOLECULE
*****
 43 45 0 0 0
SMALL
GASTEIGER

@<TRIPOS>ATOM
      1 P          22.0899   72.6215   -6.0862 P.3     1  UNL1        0.2189
      2 O          20.9209   73.4076   -5.2899 O.co2   1  UNL1       -0.4371
      3 O          23.0872   73.5027   -6.7797 O.2     1  UNL1       -0.5170
      4 O          21.2856   71.5878   -7.0362 O.3     1  UNL1       -0.3112
      5 C          20.0066   71.9632   -7.5134 C.3     1  UNL1        0.1811
      6 O          18.7566   69.9488   -7.1170 O.3     1  UNL1       -0.3308
      7 O          18.0266   70.0509  -10.0236 O.3     1  UNL1       -0.3794
      8 O          15.7888   71.0313   -8.8124 O.3     1  UNL1       -0.3779
      9 C          18.2017   71.1235   -9.0976 C.3     1  UNL1        0.1713
     10 C          17.0245   71.1938   -8.1482 C.3     1  UNL1        0.1895
     11 C          19.3444   70.7542   -8.1615 C.3     1  UNL1        0.1764
     12 C          17.3259   70.0563   -7.1874 C.3     1  UNL1        0.2383
     13 H          17.3016   70.2639  -10.6323 H       1  UNL1        0.2105
     14 H          15.6430   71.7805   -9.4119 H       1  UNL1        0.2106
     15 O          16.4298   68.0389   -5.4257 O.2     1  UNL1       -0.2464
     16 O          15.3689   71.1101   -2.1567 O.2     1  UNL1       -0.2670
     17 N          16.8106   70.3008   -5.8699 N.ar    1  UNL1       -0.2551
     18 N          15.9013   69.5705   -3.7996 N.ar    1  UNL1       -0.2743
     19 C          16.3868   69.2167   -5.0654 C.ar    1  UNL1        0.3323
     20 C          16.7306   71.6012   -5.3867 C.ar    1  UNL1        0.0869
     21 C          16.2657   71.9228   -4.1780 C.ar    1  UNL1        0.0795
     22 C          15.8017   70.8490   -3.2751 C.ar    1  UNL1        0.2626
     23 H          15.5984   68.8329   -3.2221 H       1  UNL1        0.1734
     24 O          22.7180   71.6579   -4.9505 O.3     1  UNL1       -0.2703
     25 P          23.5015   72.0040   -3.5794 P.3     1  UNL1        0.2208
     26 O          24.3852   73.3011   -3.9758 O.co2   1  UNL1       -0.4371
     27 O          24.2977   70.8609   -3.0197 O.2     1  UNL1       -0.5170
     28 O          22.3623   72.5744   -2.5898 O.3     1  UNL1       -0.2858
     29 O          22.0480   74.5512   -1.3239 O.3     1  UNL1       -0.3226
     30 O          20.7705   71.6467    1.3218 O.3     1  UNL1       -0.3794
     31 O          23.1680   71.2269   -0.2938 O.3     1  UNL1       -0.3775
     32 O          18.8322   73.3081   -0.0687 O.3     1  UNL1       -0.3792
     33 C          20.9879   72.2376    0.0406 C.3     1  UNL1        0.1718
     34 C          22.4846   72.4687   -0.1691 C.3     1  UNL1        0.1968
     35 C          20.2330   73.5682   -0.0008 C.3     1  UNL1        0.1723
     36 C          22.7385   73.3052   -1.4240 C.3     1  UNL1        0.2706
     37 C          20.6344   74.3988   -1.2163 C.3     1  UNL1        0.1830
     38 H          21.2410   70.7997    1.3715 H       1  UNL1        0.2105
     39 H          23.0110   70.6909    0.4989 H       1  UNL1        0.2106
     40 H          18.5637   72.7799    0.6992 H       1  UNL1        0.2106
     41 O          20.5464   76.5526   -2.1411 O.co2   1  UNL1       -0.5466
     42 O          19.4975   76.2356   -0.1415 O.co2   1  UNL1       -0.5466
     43 C          20.1547   75.8071   -1.0782 C.2     1  UNL1        0.0799
@<TRIPOS>UNITY_ATOM_ATTR
2 1
charge -1
26 1
charge -1
41 1
charge -1
@<TRIPOS>BOND
     1     1     4    1
     2     1    24    1
     3     1     2    1
     4     1     3    2
     5    25    28    1
     6    25    24    1
     7    25    26    1
     8    25    27    2
     9     6    11    1
    10     6    12    1
    11    29    36    1
    12    29    37    1
    13     7     9    1
    14     7    13    1
    15     8    10    1
    16     8    14    1
    17     4     5    1
    18    28    36    1
    19    30    33    1
    20    30    38    1
    21    31    34    1
    22    31    39    1
    23    32    35    1
    24    32    40    1
    25    41    43   ar
    26    15    19    2
    27    42    43   ar
    28    16    22    2
    29    17    12    1
    30    17    19   ar
    31    17    20   ar
    32    18    19   ar
    33    18    22   ar
    34    18    23    1
    35     9    10    1
    36     9    11    1
    37    10    12    1
    38    11     5    1
    39    33    34    1
    40    33    35    1
    41    34    36    1
    42    35    37    1
    43    37    43    1
    44    20    21   ar
    45    21    22   ar
@<TRIPOS>MOLECULE
*****
 43 45 0 0 0
SMALL
GASTEIGER

@<TRIPOS>ATOM
      1 P          23.1896   73.9553   -3.6686 P.3     1  UNL1        0.2189
      2 O          22.7107   75.0957   -4.7121 O.co2   1  UNL1       -0.4371
      3 O          24.5790   73.4345   -3.8928 O.2     1  UNL1       -0.5170
      4 O          22.0076   72.8521   -3.7292 O.3     1  UNL1       -0.3112
      5 C          20.7514   73.2355   -4.2580 C.3     1  UNL1        0.1811
      6 O          18.6946   72.0653   -4.6796 O.3     1  UNL1       -0.3308
      7 O          19.2866   70.5073   -2.1870 O.3     1  UNL1       -0.3794
      8 O          20.0391   68.7825   -4.1606 O.3     1  UNL1       -0.3779
      9 C          20.1869   71.0020   -3.1786 C.3     1  UNL1        0.1713
     10 C          20.0906   70.1664   -4.4375 C.3     1  UNL1        0.1895
     11 C          19.6678   72.3527   -3.6523 C.3     1  UNL1        0.1764
     12 C          18.8075   70.6857   -5.0634 C.3     1  UNL1        0.2383
     13 H          19.5974   69.6447   -1.8691 H       1  UNL1        0.2105
     14 H          20.8787   68.5007   -3.7637 H       1  UNL1        0.2106
     15 O          16.6771   69.6834   -6.6233 O.2     1  UNL1       -0.2464
     16 O          18.9759   70.4014  -10.5532 O.2     1  UNL1       -0.2670
     17 N          18.8226   70.5994   -6.4963 N.ar    1  UNL1       -0.2551
     18 N          17.8245   70.0410   -8.5791 N.ar    1  UNL1       -0.2743
     19 C          17.7005   70.0799   -7.1840 C.ar    1  UNL1        0.3323
     20 C          19.9385   71.0276   -7.2051 C.ar    1  UNL1        0.0869
     21 C          20.0419   70.9844   -8.5349 C.ar    1  UNL1        0.0795
     22 C          18.9138   70.4546   -9.3287 C.ar    1  UNL1        0.2626
     23 H          17.0567   69.6814   -9.0796 H       1  UNL1        0.1734
     24 O          22.9576   74.6579   -2.2315 O.3     1  UNL1       -0.2703
     25 P          24.0034   75.3265   -1.1957 P.3     1  UNL1        0.2208
     26 O          23.0767   76.3365   -0.3347 O.co2   1  UNL1       -0.4371
     27 O          25.1866   75.9789   -1.8502 O.2     1  UNL1       -0.5170
     28 O          24.3765   74.1403   -0.1679 O.3     1  UNL1       -0.2858
     29 O          22.7391   73.2672    1.3037 O.3     1  UNL1       -0.3226
     30 O          26.2396   71.9891    3.0873 O.3     1  UNL1       -0.3794
     31 O          26.0343   74.6913    1.9963 O.3     1  UNL1       -0.3775
     32 O          24.5940   70.1148    1.5940 O.3     1  UNL1       -0.3792
     33 C          25.3880   72.3529    2.0008 C.3     1  UNL1        0.1718
     34 C          24.9357   73.8037    2.1687 C.3     1  UNL1        0.1968
     35 C          24.1796   71.4140    2.0122 C.3     1  UNL1        0.1723
     36 C          23.8458   74.1576    1.1560 C.3     1  UNL1        0.2706
     37 C          23.0845   71.9038    1.0691 C.3     1  UNL1        0.1830
     38 H          27.0147   72.5725    3.1002 H       1  UNL1        0.2105
     39 H          26.7298   74.4723    2.6356 H       1  UNL1        0.2106
     40 H          25.2910   69.7915    2.1860 H       1  UNL1        0.2106
     41 O          20.9267   71.9840    1.9849 O.co2   1  UNL1       -0.5466
     42 O          21.5633   70.0327    0.9919 O.co2   1  UNL1       -0.5466
     43 C          21.8012   71.1834    1.3267 C.2     1  UNL1        0.0799
@<TRIPOS>UNITY_ATOM_ATTR
2 1
charge -1
26 1
charge -1
41 1
charge -1
@<TRIPOS>BOND
     1     1     4    1
     2     1    24    1
     3     1     2    1
     4     1     3    2
     5    25    28    1
     6    25    24    1
     7    25    26    1
     8    25    27    2
     9     6    11    1
    10     6    12    1
    11    29    36    1
    12    29    37    1
    13     7     9    1
    14     7    13    1
    15     8    10    1
    16     8    14    1
    17     4     5    1
    18    28    36    1
    19    30    33    1
    20    30    38    1
    21    31    34    1
    22    31    39    1
    23    32    35    1
    24    32    40    1
    25    41    43   ar
    26    15    19    2
    27    42    43   ar
    28    16    22    2
    29    17    12    1
    30    17    19   ar
    31    17    20   ar
    32    18    19   ar
    33    18    22   ar
    34    18    23    1
    35     9    10    1
    36     9    11    1
    37    10    12    1
    38    11     5    1
    39    33    34    1
    40    33    35    1
    41    34    36    1
    42    35    37    1
    43    37    43    1
    44    20    21   ar
    45    21    22   ar
@<TRIPOS>MOLECULE
*****
 43 45 0 0 0
SMALL
GASTEIGER

@<TRIPOS>ATOM
      1 P          23.4273   72.2153   -3.5214 P.3     1  UNL1        0.2189
      2 O          23.9781   70.7214   -3.2322 O.co2   1  UNL1       -0.4371
      3 O          24.4475   73.1728   -4.0637 O.2     1  UNL1       -0.5170
      4 O          22.7283   72.6482   -2.1279 O.3     1  UNL1       -0.3112
      5 C          23.5295   72.7184   -0.9627 C.3     1  UNL1        0.1811
      6 O          24.5140   71.2302    0.6478 O.3     1  UNL1       -0.3308
      7 O          21.7322   70.2275    1.1452 O.3     1  UNL1       -0.3794
      8 O          22.1460   71.9072    3.2532 O.3     1  UNL1       -0.3779
      9 C          22.1758   71.5517    0.8480 C.3     1  UNL1        0.1713
     10 C          22.8528   72.1614    2.0572 C.3     1  UNL1        0.1895
     11 C          23.3265   71.4501   -0.1439 C.3     1  UNL1        0.1764
     12 C          24.2148   71.4891    2.0286 C.3     1  UNL1        0.2383
     13 H          20.9970   70.2667    1.7773 H       1  UNL1        0.2105
     14 H          21.2864   72.3567    3.2225 H       1  UNL1        0.2106
     15 O          26.8837   70.6581    2.4320 O.2     1  UNL1       -0.2464
     16 O          28.0908   74.7564    4.1613 O.2     1  UNL1       -0.2670
     17 N          25.2471   72.3186    2.5826 N.ar    1  UNL1       -0.2551
     18 N          27.4821   72.6997    3.2938 N.ar    1  UNL1       -0.2743
     19 C          26.5555   71.8044    2.7436 C.ar    1  UNL1        0.3323
     20 C          24.9601   73.6254    2.9580 C.ar    1  UNL1        0.0869
     21 C          25.8539   74.4670    3.4810 C.ar    1  UNL1        0.0795
     22 C          27.2438   74.0079    3.6831 C.ar    1  UNL1        0.2626
     23 H          28.3993   72.3638    3.4174 H       1  UNL1        0.1734
     24 O          22.1642   71.9540   -4.4957 O.3     1  UNL1       -0.2703
     25 P          21.5262   72.8604   -5.6726 P.3     1  UNL1        0.2208
     26 O          22.4548   72.5124   -6.9521 O.co2   1  UNL1       -0.4371
     27 O          21.4447   74.3238   -5.3474 O.2     1  UNL1       -0.5170
     28 O          20.1066   72.1671   -5.9992 O.3     1  UNL1       -0.2858
     29 O          19.3512   70.0000   -5.4143 O.3     1  UNL1       -0.3226
     30 O          17.3236   70.6711   -8.9508 O.3     1  UNL1       -0.3794
     31 O          20.1294   71.4396   -8.6837 O.3     1  UNL1       -0.3775
     32 O          15.9258   70.8600   -6.4089 O.3     1  UNL1       -0.3792
     33 C          17.9430   71.0295   -7.7155 C.3     1  UNL1        0.1718
     34 C          19.4195   70.6343   -7.7497 C.3     1  UNL1        0.1968
     35 C          17.2190   70.2865   -6.5905 C.3     1  UNL1        0.1723
     36 C          20.0597   70.7904   -6.3697 C.3     1  UNL1        0.2706
     37 C          17.9854   70.3849   -5.2746 C.3     1  UNL1        0.1830
     38 H          17.7672   71.1314   -9.6806 H       1  UNL1        0.2105
     39 H          19.7283   71.3456   -9.5615 H       1  UNL1        0.2106
     40 H          15.4277   70.8039   -7.2393 H       1  UNL1        0.2106
     41 O          18.3395   69.2345   -3.2615 O.co2   1  UNL1       -0.5466
     42 O          16.3857   68.8253   -4.3634 O.co2   1  UNL1       -0.5466
     43 C          17.4598   69.4017   -4.2798 C.2     1  UNL1        0.0799
@<TRIPOS>UNITY_ATOM_ATTR
2 1
charge -1
26 1
charge -1
41 1
charge -1
@<TRIPOS>BOND
     1     1     4    1
     2     1    24    1
     3     1     2    1
     4     1     3    2
     5    25    28    1
     6    25    24    1
     7    25    26    1
     8    25    27    2
     9     6    11    1
    10     6    12    1
    11    29    36    1
    12    29    37    1
    13     7     9    1
    14     7    13    1
    15     8    10    1
    16     8    14    1
    17     4     5    1
    18    28    36    1
    19    30    33    1
    20    30    38    1
    21    31    34    1
    22    31    39    1
    23    32    35    1
    24    32    40    1
    25    41    43   ar
    26    15    19    2
    27    42    43   ar
    28    16    22    2
    29    17    12    1
    30    17    19   ar
    31    17    20   ar
    32    18    19   ar
    33    18    22   ar
    34    18    23    1
    35     9    10    1
    36     9    11    1
    37    10    12    1
    38    11     5    1
    39    33    34    1
    40    33    35    1
    41    34    36    1
    42    35    37    1
    43    37    43    1
    44    20    21   ar
    45    21    22   ar
@<TRIPOS>MOLECULE
*****
 43 45 0 0 0
SMALL
GASTEIGER

@<TRIPOS>ATOM
      1 P          20.9341   72.8285   -3.9538 P.3     1  UNL1        0.2189
      2 O          21.3298   72.6780   -5.5157 O.co2   1  UNL1       -0.4371
      3 O          21.6825   71.9226   -3.0205 O.2     1  UNL1       -0.5170
      4 O          19.3237   72.6719   -3.9441 O.3     1  UNL1       -0.3112
      5 C          18.7559   71.5670   -3.2649 C.3     1  UNL1        0.1811
      6 O          17.0089   72.0073   -4.8560 O.3     1  UNL1       -0.3308
      7 O          15.2499   70.3169   -3.1125 O.3     1  UNL1       -0.3794
      8 O          15.9105   68.6054   -5.1300 O.3     1  UNL1       -0.3779
      9 C          16.6375   70.1660   -3.4130 C.3     1  UNL1        0.1713
     10 C          16.8147   69.6462   -4.8239 C.3     1  UNL1        0.1895
     11 C          17.2519   71.5560   -3.5060 C.3     1  UNL1        0.1764
     12 C          16.5710   70.8955   -5.6532 C.3     1  UNL1        0.2383
     13 H          14.8356   69.4417   -3.0481 H       1  UNL1        0.2105
     14 H          16.1071   67.8330   -4.5763 H       1  UNL1        0.2106
     15 O          15.5822   71.8858   -8.1063 O.2     1  UNL1       -0.2464
     16 O          19.4791   70.8106  -10.3204 O.2     1  UNL1       -0.2670
     17 N          17.3061   70.8867   -6.8862 N.ar    1  UNL1       -0.2551
     18 N          17.5237   71.3484   -9.2069 N.ar    1  UNL1       -0.2743
     19 C          16.7176   71.4084   -8.0625 C.ar    1  UNL1        0.3323
     20 C          18.5946   70.3676   -6.9219 C.ar    1  UNL1        0.0869
     21 C          19.3507   70.3174   -8.0203 C.ar    1  UNL1        0.0795
     22 C          18.8101   70.8411   -9.2919 C.ar    1  UNL1        0.2626
     23 H          17.1348   71.7038  -10.0387 H       1  UNL1        0.1734
     24 O          21.1474   74.4065   -3.6758 O.3     1  UNL1       -0.2703
     25 P          20.9125   75.2907   -2.3430 P.3     1  UNL1        0.2208
     26 O          19.3628   75.0014   -1.9755 O.co2   1  UNL1       -0.4371
     27 O          21.2494   76.7451   -2.5016 O.2     1  UNL1       -0.5170
     28 O          21.7521   74.5305   -1.1942 O.3     1  UNL1       -0.2858
     29 O          21.1974   72.7635    0.2821 O.3     1  UNL1       -0.3226
     30 O          23.6354   75.1074    2.6549 O.3     1  UNL1       -0.3794
     31 O          21.6349   76.3373    0.9171 O.3     1  UNL1       -0.3775
     32 O          24.6497   72.6317    1.5178 O.3     1  UNL1       -0.3792
     33 C          23.1688   74.5305    1.4353 C.3     1  UNL1        0.1718
     34 C          21.7166   74.9444    1.1961 C.3     1  UNL1        0.1968
     35 C          23.2748   73.0090    1.5610 C.3     1  UNL1        0.1723
     36 C          21.1113   74.1660    0.0270 C.3     1  UNL1        0.2706
     37 C          22.5395   72.3036    0.4251 C.3     1  UNL1        0.1830
     38 H          23.5774   76.0742    2.5984 H       1  UNL1        0.2105
     39 H          22.0174   76.8373    1.6547 H       1  UNL1        0.2106
     40 H          25.1291   73.0741    2.2356 H       1  UNL1        0.2106
     41 O          21.0995   70.4523    0.4503 O.co2   1  UNL1       -0.5466
     42 O          23.2396   70.1152    1.1614 O.co2   1  UNL1       -0.5466
     43 C          22.3658   70.8507    0.7271 C.2     1  UNL1        0.0799
@<TRIPOS>UNITY_ATOM_ATTR
2 1
charge -1
26 1
charge -1
41 1
charge -1
@<TRIPOS>BOND
     1     1     4    1
     2     1    24    1
     3     1     2    1
     4     1     3    2
     5    25    28    1
     6    25    24    1
     7    25    26    1
     8    25    27    2
     9     6    11    1
    10     6    12    1
    11    29    36    1
    12    29    37    1
    13     7     9    1
    14     7    13    1
    15     8    10    1
    16     8    14    1
    17     4     5    1
    18    28    36    1
    19    30    33    1
    20    30    38    1
    21    31    34    1
    22    31    39    1
    23    32    35    1
    24    32    40    1
    25    41    43   ar
    26    15    19    2
    27    42    43   ar
    28    16    22    2
    29    17    12    1
    30    17    19   ar
    31    17    20   ar
    32    18    19   ar
    33    18    22   ar
    34    18    23    1
    35     9    10    1
    36     9    11    1
    37    10    12    1
    38    11     5    1
    39    33    34    1
    40    33    35    1
    41    34    36    1
    42    35    37    1
    43    37    43    1
    44    20    21   ar
    45    21    22   ar
@<TRIPOS>MOLECULE
*****
 43 45 0 0 0
SMALL
GASTEIGER

@<TRIPOS>ATOM
      1 P          20.6913   71.3806   -1.7201 P.3     1  UNL1        0.2189
      2 O          22.2996   71.2269   -1.6282 O.co2   1  UNL1       -0.4371
      3 O          19.9212   70.6105   -0.6877 O.2     1  UNL1       -0.5170
      4 O          20.3541   71.0208   -3.2611 O.3     1  UNL1       -0.3112
      5 C          19.4976   69.9255   -3.5279 C.3     1  UNL1        0.1811
      6 O          17.8760   71.2160   -4.7456 O.3     1  UNL1       -0.3308
      7 O          15.7959   69.7757   -3.1363 O.3     1  UNL1       -0.3794
      8 O          15.7281   68.4516   -5.5192 O.3     1  UNL1       -0.3779
      9 C          17.0369   69.2910   -3.6498 C.3     1  UNL1        0.1713
     10 C          16.9377   69.0775   -5.1454 C.3     1  UNL1        0.1895
     11 C          18.0564   70.4180   -3.5557 C.3     1  UNL1        0.1764
     12 C          17.0494   70.4971   -5.6747 C.3     1  UNL1        0.2383
     13 H          15.1285   69.0730   -3.1860 H       1  UNL1        0.2105
     14 H          15.7053   67.5508   -5.1585 H       1  UNL1        0.2106
     15 O          15.6152   70.3832   -8.1050 O.2     1  UNL1       -0.2464
     16 O          19.4718   70.7119  -10.6076 O.2     1  UNL1       -0.2670
     17 N          17.6536   70.5509   -6.9758 N.ar    1  UNL1       -0.2551
     18 N          17.5374   70.5460   -9.3491 N.ar    1  UNL1       -0.2743
     19 C          16.8430   70.4858   -8.1337 C.ar    1  UNL1        0.3323
     20 C          19.0330   70.6684   -7.0956 C.ar    1  UNL1        0.0869
     21 C          19.6806   70.7247   -8.2610 C.ar    1  UNL1        0.0795
     22 C          18.9076   70.6622   -9.5188 C.ar    1  UNL1        0.2626
     23 H          16.9946   70.5004  -10.1692 H       1  UNL1        0.1734
     24 O          20.4759   72.9816   -1.6652 O.3     1  UNL1       -0.2703
     25 P          19.3047   73.9165   -2.2718 P.3     1  UNL1        0.2208
     26 O          19.6361   75.3742   -1.6508 O.co2   1  UNL1       -0.4371
     27 O          17.9150   73.4247   -1.9877 O.2     1  UNL1       -0.5170
     28 O          19.6597   74.0516   -3.8397 O.3     1  UNL1       -0.2858
     29 O          21.8344   74.9854   -3.7502 O.3     1  UNL1       -0.3226
     30 O          21.4945   74.0283   -7.7548 O.3     1  UNL1       -0.3794
     31 O          19.2499   75.2325   -6.3244 O.3     1  UNL1       -0.3775
     32 O          23.1121   72.3769   -5.9920 O.3     1  UNL1       -0.3792
     33 C          21.2618   73.8769   -6.3545 C.3     1  UNL1        0.1718
     34 C          20.5733   75.1296   -5.8118 C.3     1  UNL1        0.1968
     35 C          22.6151   73.6744   -5.6693 C.3     1  UNL1        0.1723
     36 C          20.5149   75.1033   -4.2838 C.3     1  UNL1        0.2706
     37 C          22.4940   73.7869   -4.1524 C.3     1  UNL1        0.1830
     38 H          20.6483   74.1584   -8.2112 H       1  UNL1        0.2105
     39 H          19.2794   75.2494   -7.2935 H       1  UNL1        0.2106
     40 H          23.1937   72.2921   -6.9548 H       1  UNL1        0.2106
     41 O          23.7258   74.1891   -2.1973 O.co2   1  UNL1       -0.5466
     42 O          24.9063   73.7959   -4.1080 O.co2   1  UNL1       -0.5466
     43 C          23.8417   73.9177   -3.5208 C.2     1  UNL1        0.0799
@<TRIPOS>UNITY_ATOM_ATTR
2 1
charge -1
26 1
charge -1
41 1
charge -1
@<TRIPOS>BOND
     1     1     4    1
     2     1    24    1
     3     1     2    1
     4     1     3    2
     5    25    28    1
     6    25    24    1
     7    25    26    1
     8    25    27    2
     9     6    11    1
    10     6    12    1
    11    29    36    1
    12    29    37    1
    13     7     9    1
    14     7    13    1
    15     8    10    1
    16     8    14    1
    17     4     5    1
    18    28    36    1
    19    30    33    1
    20    30    38    1
    21    31    34    1
    22    31    39    1
    23    32    35    1
    24    32    40    1
    25    41    43   ar
    26    15    19    2
    27    42    43   ar
    28    16    22    2
    29    17    12    1
    30    17    19   ar
    31    17    20   ar
    32    18    19   ar
    33    18    22   ar
    34    18    23    1
    35     9    10    1
    36     9    11    1
    37    10    12    1
    38    11     5    1
    39    33    34    1
    40    33    35    1
    41    34    36    1
    42    35    37    1
    43    37    43    1
    44    20    21   ar
    45    21    22   ar
