@<TRIPOS>MOLECULE
*****
 43 45 0 0 0
SMALL
GASTEIGER

@<TRIPOS>ATOM
      1 P          22.8647   71.6755   -3.1885 P.3     1  UNL1        0.2189
      2 O          22.3685   72.3542   -4.5708 O.co2   1  UNL1       -0.4371
      3 O          24.2002   70.9953   -3.2601 O.2     1  UNL1       -0.5170
      4 O          21.6216   70.7382   -2.7479 O.3     1  UNL1       -0.3112
      5 C          20.7536   70.2487   -3.7553 C.3     1  UNL1        0.1811
      6 O          18.9180   71.4847   -4.6916 O.3     1  UNL1       -0.3308
      7 O          17.2348   70.2556   -2.5359 O.3     1  UNL1       -0.3794
      8 O          16.6138   68.7364   -4.7137 O.3     1  UNL1       -0.3779
      9 C          18.3205   69.6878   -3.2668 C.3     1  UNL1        0.1713
     10 C          17.8855   69.3516   -4.6780 C.3     1  UNL1        0.1895
     11 C          19.3508   70.7848   -3.5045 C.3     1  UNL1        0.1764
     12 C          17.8933   70.7170   -5.3439 C.3     1  UNL1        0.2383
     13 H          16.5640   69.5736   -2.3717 H       1  UNL1        0.2105
     14 H          16.6607   67.8711   -4.2780 H       1  UNL1        0.2106
     15 O          15.9636   70.2897   -7.3617 O.2     1  UNL1       -0.2464
     16 O          19.1458   70.4404  -10.6922 O.2     1  UNL1       -0.2670
     17 N          18.1897   70.6406   -6.7467 N.ar    1  UNL1       -0.2551
     18 N          17.5496   70.3653   -9.0184 N.ar    1  UNL1       -0.2743
     19 C          17.1478   70.4219   -7.6778 C.ar    1  UNL1        0.3323
     20 C          19.5014   70.7821   -7.1865 C.ar    1  UNL1        0.0869
     21 C          19.8682   70.7242   -8.4684 C.ar    1  UNL1        0.0795
     22 C          18.8404   70.4987   -9.5051 C.ar    1  UNL1        0.2626
     23 H          16.8408   70.2134   -9.6849 H       1  UNL1        0.1734
     24 O          22.7884   72.8991   -2.1350 O.3     1  UNL1       -0.2703
     25 P          22.9453   72.9261   -0.5264 P.3     1  UNL1        0.2208
     26 O          21.4302   72.7088   -0.0021 O.co2   1  UNL1       -0.4371
     27 O          23.6137   74.1605    0.0060 O.2     1  UNL1       -0.5170
     28 O          23.7029   71.5472   -0.1665 O.3     1  UNL1       -0.2858
     29 O          24.6830   71.9803    1.9473 O.3     1  UNL1       -0.3258
     30 O          20.6990   72.2345    3.0027 O.3     1  UNL1       -0.3794
     31 O          22.2837   74.6255    2.8613 O.3     1  UNL1       -0.3794
     32 O          21.5619   70.2396    1.0909 O.3     1  UNL1       -0.3775
     33 C          21.8317   72.3892    2.1433 C.3     1  UNL1        0.1715
     34 C          22.8364   73.3124    2.8356 C.3     1  UNL1        0.1694
     35 C          22.4521   71.0177    1.8836 C.3     1  UNL1        0.1967
     36 C          24.1841   73.3141    2.1016 C.3     1  UNL1        0.1761
     37 C          23.8123   71.1347    1.1933 C.3     1  UNL1        0.2704
     38 H          20.3001   73.1017    3.1713 H       1  UNL1        0.2105
     39 H          21.4328   74.6104    3.3271 H       1  UNL1        0.2105
     40 H          20.7047   70.1727    1.5388 H       1  UNL1        0.2106
     41 O          24.8876   74.1414    4.2298 O.3     1  UNL1       -0.3794
     42 C          25.2480   74.1034    2.8613 C.3     1  UNL1        0.1693
     43 H          25.5560   74.6404    4.7258 H       1  UNL1        0.2105
@<TRIPOS>UNITY_ATOM_ATTR
2 1
charge -1
26 1
charge -1
@<TRIPOS>BOND
     1    25    28    1
     2    25    24    1
     3    25    26    1
     4    25    27    2
     5     1     4    1
     6     1    24    1
     7     1     2    1
     8     1     3    2
     9     6    11    1
    10     6    12    1
    11    29    36    1
    12    29    37    1
    13     7     9    1
    14     7    13    1
    15     8    10    1
    16     8    14    1
    17    28    37    1
    18     4     5    1
    19    30    33    1
    20    30    38    1
    21    31    34    1
    22    31    39    1
    23    32    35    1
    24    32    40    1
    25    41    42    1
    26    41    43    1
    27    15    19    2
    28    16    22    2
    29    17    12    1
    30    17    19   ar
    31    17    20   ar
    32    18    19   ar
    33    18    22   ar
    34    18    23    1
    35     9    10    1
    36     9    11    1
    37    10    12    1
    38    11     5    1
    39    33    34    1
    40    33    35    1
    41    34    36    1
    42    35    37    1
    43    36    42    1
    44    20    21   ar
    45    21    22   ar
@<TRIPOS>MOLECULE
*****
 43 45 0 0 0
SMALL
GASTEIGER

@<TRIPOS>ATOM
      1 P          23.1423   71.6388   -2.3444 P.3     1  UNL1        0.2189
      2 O          23.5926   73.0891   -1.7864 O.co2   1  UNL1       -0.4371
      3 O          24.1915   70.9081   -3.1297 O.2     1  UNL1       -0.5170
      4 O          21.7584   71.9368   -3.1281 O.3     1  UNL1       -0.3112
      5 C          20.9858   70.8374   -3.5777 C.3     1  UNL1        0.1811
      6 O          18.9150   71.6740   -4.4641 O.3     1  UNL1       -0.3308
      7 O          17.5786   70.2236   -2.2055 O.3     1  UNL1       -0.3794
      8 O          17.1736   68.5422   -4.3139 O.3     1  UNL1       -0.3779
      9 C          18.7234   69.8458   -2.9685 C.3     1  UNL1        0.1713
     10 C          18.3062   69.3864   -4.3500 C.3     1  UNL1        0.1895
     11 C          19.5175   71.1083   -3.2795 C.3     1  UNL1        0.1764
     12 C          18.0300   70.7057   -5.0508 C.3     1  UNL1        0.2383
     13 H          17.0558   69.4336   -1.9945 H       1  UNL1        0.2105
     14 H          17.4000   67.7164   -3.8584 H       1  UNL1        0.2106
     15 O          16.1687   69.7765   -6.9613 O.2     1  UNL1       -0.2464
     16 O          19.1052   70.4936  -10.4404 O.2     1  UNL1       -0.2670
     17 N          18.2816   70.6392   -6.4627 N.ar    1  UNL1       -0.2551
     18 N          17.6323   70.1345   -8.6921 N.ar    1  UNL1       -0.2743
     19 C          17.2800   70.1558   -7.3366 C.ar    1  UNL1        0.3323
     20 C          19.5102   71.0507   -6.9678 C.ar    1  UNL1        0.0869
     21 C          19.8309   71.0229   -8.2630 C.ar    1  UNL1        0.0795
     22 C          18.8405   70.5316   -9.2427 C.ar    1  UNL1        0.2626
     23 H          16.9504   69.8013   -9.3195 H       1  UNL1        0.1734
     24 O          22.6464   70.8737   -1.0096 O.3     1  UNL1       -0.2703
     25 P          21.7726   71.3913    0.2480 P.3     1  UNL1        0.2208
     26 O          21.4631   70.0322    1.0692 O.co2   1  UNL1       -0.4371
     27 O          20.5509   72.1764   -0.1330 O.2     1  UNL1       -0.5170
     28 O          22.8233   72.1957    1.1721 O.3     1  UNL1       -0.2858
     29 O          24.4679   71.9304    2.8577 O.3     1  UNL1       -0.3258
     30 O          21.7825   74.2923    4.9219 O.3     1  UNL1       -0.3794
     31 O          24.2695   75.4192    4.0313 O.3     1  UNL1       -0.3794
     32 O          20.8157   72.2325    3.1325 O.3     1  UNL1       -0.3775
     33 C          22.4982   73.8330    3.7720 C.3     1  UNL1        0.1715
     34 C          23.9942   74.0212    4.0314 C.3     1  UNL1        0.1694
     35 C          22.1743   72.3586    3.5385 C.3     1  UNL1        0.1967
     36 C          24.8355   73.3108    2.9624 C.3     1  UNL1        0.1761
     37 C          23.1003   71.7357    2.4923 C.3     1  UNL1        0.2704
     38 H          21.9834   75.2280    5.0754 H       1  UNL1        0.2105
     39 H          23.7316   75.8560    4.7103 H       1  UNL1        0.2105
     40 H          20.2397   72.6303    3.8032 H       1  UNL1        0.2106
     41 O          26.9148   72.1387    2.8556 O.3     1  UNL1       -0.3794
     42 C          26.3269   73.3519    3.2878 C.3     1  UNL1        0.1693
     43 H          27.8642   72.1507    3.0560 H       1  UNL1        0.2105
@<TRIPOS>UNITY_ATOM_ATTR
2 1
charge -1
26 1
charge -1
@<TRIPOS>BOND
     1    25    28    1
     2    25    24    1
     3    25    26    1
     4    25    27    2
     5     1     4    1
     6     1    24    1
     7     1     2    1
     8     1     3    2
     9     6    11    1
    10     6    12    1
    11    29    36    1
    12    29    37    1
    13     7     9    1
    14     7    13    1
    15     8    10    1
    16     8    14    1
    17    28    37    1
    18     4     5    1
    19    30    33    1
    20    30    38    1
    21    31    34    1
    22    31    39    1
    23    32    35    1
    24    32    40    1
    25    41    42    1
    26    41    43    1
    27    15    19    2
    28    16    22    2
    29    17    12    1
    30    17    19   ar
    31    17    20   ar
    32    18    19   ar
    33    18    22   ar
    34    18    23    1
    35     9    10    1
    36     9    11    1
    37    10    12    1
    38    11     5    1
    39    33    34    1
    40    33    35    1
    41    34    36    1
    42    35    37    1
    43    36    42    1
    44    20    21   ar
    45    21    22   ar
@<TRIPOS>MOLECULE
*****
 43 45 0 0 0
SMALL
GASTEIGER

@<TRIPOS>ATOM
      1 P          22.4820   71.2298   -2.5660 P.3     1  UNL1        0.2189
      2 O          23.9877   71.1020   -3.1437 O.co2   1  UNL1       -0.4371
      3 O          21.5258   70.1802   -3.0512 O.2     1  UNL1       -0.5170
      4 O          22.0698   72.7602   -2.8912 O.3     1  UNL1       -0.3112
      5 C          20.8529   73.0018   -3.5758 C.3     1  UNL1        0.1811
      6 O          20.7364   71.9698   -5.7427 O.3     1  UNL1       -0.3308
      7 O          21.0565   74.7306   -6.8680 O.3     1  UNL1       -0.3794
      8 O          18.3761   74.2945   -7.1167 O.3     1  UNL1       -0.3779
      9 C          20.3528   74.3079   -5.7011 C.3     1  UNL1        0.1713
     10 C          19.0638   73.6131   -6.0873 C.3     1  UNL1        0.1895
     11 C          21.1450   73.1753   -5.0600 C.3     1  UNL1        0.1764
     12 C          19.5614   72.2452   -6.5227 C.3     1  UNL1        0.2383
     13 H          20.5698   75.4539   -7.2946 H       1  UNL1        0.2105
     14 H          18.0798   75.1586   -6.7907 H       1  UNL1        0.2106
     15 O          17.5792   71.4663   -8.3779 O.2     1  UNL1       -0.2464
     16 O          15.9013   68.2646   -5.5187 O.2     1  UNL1       -0.2670
     17 N          18.5937   71.2106   -6.2893 N.ar    1  UNL1       -0.2551
     18 N          16.7455   69.8726   -6.9528 N.ar    1  UNL1       -0.2743
     19 C          17.6403   70.8974   -7.2860 C.ar    1  UNL1        0.3323
     20 C          18.5965   70.5184   -5.0831 C.ar    1  UNL1        0.0869
     21 C          17.7355   69.5446   -4.7804 C.ar    1  UNL1        0.0795
     22 C          16.7073   69.1560   -5.7672 C.ar    1  UNL1        0.2626
     23 H          16.0720   69.6375   -7.6317 H       1  UNL1        0.1734
     24 O          22.7070   71.2465   -0.9653 O.3     1  UNL1       -0.2703
     25 P          21.6621   71.4472    0.2515 P.3     1  UNL1        0.2208
     26 O          21.6145   69.9860    0.9446 O.co2   1  UNL1       -0.4371
     27 O          20.3218   71.9769   -0.1693 O.2     1  UNL1       -0.5170
     28 O          22.4453   72.3767    1.3134 O.3     1  UNL1       -0.2858
     29 O          24.2361   71.7808    2.7467 O.3     1  UNL1       -0.3258
     30 O          22.3375   74.5315    5.1716 O.3     1  UNL1       -0.3794
     31 O          24.8359   75.2190    3.9333 O.3     1  UNL1       -0.3794
     32 O          20.7736   72.7220    3.5409 O.3     1  UNL1       -0.3775
     33 C          22.7896   73.9807    3.9316 C.3     1  UNL1        0.1715
     34 C          24.3164   73.8929    3.9741 C.3     1  UNL1        0.1694
     35 C          22.1761   72.5939    3.7482 C.3     1  UNL1        0.1967
     36 C          24.8570   73.0707    2.7965 C.3     1  UNL1        0.1761
     37 C          22.8182   71.8421    2.5809 C.3     1  UNL1        0.2704
     38 H          22.7230   75.4124    5.2939 H       1  UNL1        0.2105
     39 H          24.4864   75.7277    4.6819 H       1  UNL1        0.2105
     40 H          20.3788   73.1992    4.2867 H       1  UNL1        0.2106
     41 O          26.6307   71.4827    2.5931 O.3     1  UNL1       -0.3794
     42 C          26.3623   72.8373    2.9052 C.3     1  UNL1        0.1693
     43 H          27.5851   71.3196    2.6578 H       1  UNL1        0.2105
@<TRIPOS>UNITY_ATOM_ATTR
2 1
charge -1
26 1
charge -1
@<TRIPOS>BOND
     1    25    28    1
     2    25    24    1
     3    25    26    1
     4    25    27    2
     5     1     4    1
     6     1    24    1
     7     1     2    1
     8     1     3    2
     9     6    11    1
    10     6    12    1
    11    29    36    1
    12    29    37    1
    13     7     9    1
    14     7    13    1
    15     8    10    1
    16     8    14    1
    17    28    37    1
    18     4     5    1
    19    30    33    1
    20    30    38    1
    21    31    34    1
    22    31    39    1
    23    32    35    1
    24    32    40    1
    25    41    42    1
    26    41    43    1
    27    15    19    2
    28    16    22    2
    29    17    12    1
    30    17    19   ar
    31    17    20   ar
    32    18    19   ar
    33    18    22   ar
    34    18    23    1
    35     9    10    1
    36     9    11    1
    37    10    12    1
    38    11     5    1
    39    33    34    1
    40    33    35    1
    41    34    36    1
    42    35    37    1
    43    36    42    1
    44    20    21   ar
    45    21    22   ar
@<TRIPOS>MOLECULE
*****
 43 45 0 0 0
SMALL
GASTEIGER

@<TRIPOS>ATOM
      1 P          21.1153   72.0943   -2.6977 P.3     1  UNL1        0.2189
      2 O          22.2597   71.0535   -2.2239 O.co2   1  UNL1       -0.4371
      3 O          20.2907   72.6778   -1.5882 O.2     1  UNL1       -0.5170
      4 O          20.2946   71.2804   -3.8299 O.3     1  UNL1       -0.3112
      5 C          19.4800   70.1941   -3.4246 C.3     1  UNL1        0.1811
      6 O          17.8075   71.3754   -4.6819 O.3     1  UNL1       -0.3308
      7 O          15.7891   69.9072   -3.0203 O.3     1  UNL1       -0.3794
      8 O          15.7729   68.4998   -5.3560 O.3     1  UNL1       -0.3779
      9 C          17.0471   69.4557   -3.5191 C.3     1  UNL1        0.1713
     10 C          16.9571   69.1873   -5.0069 C.3     1  UNL1        0.1895
     11 C          18.0207   70.6264   -3.4654 C.3     1  UNL1        0.1764
     12 C          17.0096   70.5916   -5.5841 C.3     1  UNL1        0.2383
     13 H          15.1508   69.1765   -3.0444 H       1  UNL1        0.2105
     14 H          15.7871   67.6122   -4.9653 H       1  UNL1        0.2106
     15 O          15.5909   70.2618   -8.0041 O.2     1  UNL1       -0.2464
     16 O          19.4186   70.7401  -10.5262 O.2     1  UNL1       -0.2670
     17 N          17.6104   70.6258   -6.8877 N.ar    1  UNL1       -0.2551
     18 N          17.4979   70.5004   -9.2580 N.ar    1  UNL1       -0.2743
     19 C          16.8089   70.4482   -8.0395 C.ar    1  UNL1        0.3323
     20 C          18.9795   70.8339   -7.0146 C.ar    1  UNL1        0.0869
     21 C          19.6214   70.8797   -8.1838 C.ar    1  UNL1        0.0795
     22 C          18.8573   70.7034   -9.4356 C.ar    1  UNL1        0.2626
     23 H          16.9601   70.3789  -10.0739 H       1  UNL1        0.1734
     24 O          21.9459   73.1796   -3.5609 O.3     1  UNL1       -0.2703
     25 P          23.0986   72.9899   -4.6782 P.3     1  UNL1        0.2208
     26 O          22.5290   71.7872   -5.5983 O.co2   1  UNL1       -0.4371
     27 O          24.4677   72.7430   -4.1140 O.2     1  UNL1       -0.5170
     28 O          22.9856   74.3037   -5.6088 O.3     1  UNL1       -0.2858
     29 O          21.0309   74.1651   -6.9417 O.3     1  UNL1       -0.3258
     30 O          22.7024   77.5699   -8.5740 O.3     1  UNL1       -0.3794
     31 O          20.3765   77.7927   -6.9041 O.3     1  UNL1       -0.3794
     32 O          24.4009   75.3611   -7.7892 O.3     1  UNL1       -0.3775
     33 C          22.3819   76.6483   -7.5283 C.3     1  UNL1        0.1715
     34 C          20.8585   76.5555   -7.4211 C.3     1  UNL1        0.1694
     35 C          22.9814   75.2841   -7.8642 C.3     1  UNL1        0.1967
     36 C          20.4370   75.3950   -6.5098 C.3     1  UNL1        0.1761
     37 C          22.4595   74.1920   -6.9287 C.3     1  UNL1        0.2704
     38 H          22.3251   78.4383   -8.3666 H       1  UNL1        0.2105
     39 H          20.6499   78.5172   -7.4885 H       1  UNL1        0.2105
     40 H          24.7189   76.0557   -8.3861 H       1  UNL1        0.2106
     41 O          18.3828   75.8387   -7.6465 O.3     1  UNL1       -0.3794
     42 C          18.9244   75.1854   -6.5133 C.3     1  UNL1        0.1693
     43 H          17.4206   75.7135   -7.6620 H       1  UNL1        0.2105
@<TRIPOS>UNITY_ATOM_ATTR
2 1
charge -1
26 1
charge -1
@<TRIPOS>BOND
     1    25    28    1
     2    25    24    1
     3    25    26    1
     4    25    27    2
     5     1     4    1
     6     1    24    1
     7     1     2    1
     8     1     3    2
     9     6    11    1
    10     6    12    1
    11    29    36    1
    12    29    37    1
    13     7     9    1
    14     7    13    1
    15     8    10    1
    16     8    14    1
    17    28    37    1
    18     4     5    1
    19    30    33    1
    20    30    38    1
    21    31    34    1
    22    31    39    1
    23    32    35    1
    24    32    40    1
    25    41    42    1
    26    41    43    1
    27    15    19    2
    28    16    22    2
    29    17    12    1
    30    17    19   ar
    31    17    20   ar
    32    18    19   ar
    33    18    22   ar
    34    18    23    1
    35     9    10    1
    36     9    11    1
    37    10    12    1
    38    11     5    1
    39    33    34    1
    40    33    35    1
    41    34    36    1
    42    35    37    1
    43    36    42    1
    44    20    21   ar
    45    21    22   ar
@<TRIPOS>MOLECULE
*****
 43 45 0 0 0
SMALL
GASTEIGER

@<TRIPOS>ATOM
      1 P          21.6182   71.6186   -1.9305 P.3     1  UNL1        0.2189
      2 O          21.4123   72.8083   -3.0073 O.co2   1  UNL1       -0.4371
      3 O          22.9084   70.8636   -2.0591 O.2     1  UNL1       -0.5170
      4 O          20.2700   70.7343   -2.0663 O.3     1  UNL1       -0.3112
      5 C          19.7313   70.5171   -3.3587 C.3     1  UNL1        0.1811
      6 O          18.0165   71.6296   -4.6219 O.3     1  UNL1       -0.3308
      7 O          16.0580   70.2889   -2.7896 O.3     1  UNL1       -0.3794
      8 O          15.9389   68.7344   -5.0270 O.3     1  UNL1       -0.3779
      9 C          17.2921   69.7953   -3.3081 C.3     1  UNL1        0.1713
     10 C          17.1404   69.4326   -4.7706 C.3     1  UNL1        0.1895
     11 C          18.2742   70.9586   -3.3691 C.3     1  UNL1        0.1764
     12 C          17.1781   70.7964   -5.4390 C.3     1  UNL1        0.2383
     13 H          15.4148   69.5637   -2.7409 H       1  UNL1        0.2105
     14 H          15.9634   67.8736   -4.5806 H       1  UNL1        0.2106
     15 O          15.6795   70.2157   -7.7617 O.2     1  UNL1       -0.2464
     16 O          19.3852   70.6115  -10.4733 O.2     1  UNL1       -0.2670
     17 N          17.7258   70.7415   -6.7650 N.ar    1  UNL1       -0.2551
     18 N          17.5259   70.4134   -9.1100 N.ar    1  UNL1       -0.2743
     19 C          16.8874   70.4402   -7.8635 C.ar    1  UNL1        0.3323
     20 C          19.0801   70.9851   -6.9660 C.ar    1  UNL1        0.0869
     21 C          19.6738   70.9544   -8.1610 C.ar    1  UNL1        0.0795
     22 C          18.8687   70.6473   -9.3607 C.ar    1  UNL1        0.2626
     23 H          16.9617   70.2053   -9.8898 H       1  UNL1        0.1734
     24 O          21.4176   72.3715   -0.5142 O.3     1  UNL1       -0.2703
     25 P          21.4020   71.8013    0.9983 P.3     1  UNL1        0.2208
     26 O          21.5288   70.2016    0.7930 O.co2   1  UNL1       -0.4371
     27 O          20.2105   72.2296    1.8051 O.2     1  UNL1       -0.5170
     28 O          22.8243   72.2469    1.6176 O.3     1  UNL1       -0.2858
     29 O          24.5363   73.5853    0.6718 O.3     1  UNL1       -0.3258
     30 O          26.8763   70.8998    2.7608 O.3     1  UNL1       -0.3794
     31 O          26.6266   73.5995    3.7081 O.3     1  UNL1       -0.3794
     32 O          24.4776   69.9879    1.4211 O.3     1  UNL1       -0.3775
     33 C          25.7302   71.7228    2.5270 C.3     1  UNL1        0.1715
     34 C          26.1973   73.1755    2.4173 C.3     1  UNL1        0.1694
     35 C          25.0513   71.2772    1.2332 C.3     1  UNL1        0.1967
     36 C          25.0706   74.0825    1.9043 C.3     1  UNL1        0.1761
     37 C          23.9807   72.2736    0.7849 C.3     1  UNL1        0.2704
     38 H          27.3117   71.1772    3.5811 H       1  UNL1        0.2105
     39 H          27.3378   73.0183    4.0207 H       1  UNL1        0.2105
     40 H          25.1655   69.3663    1.7044 H       1  UNL1        0.2106
     41 O          25.9523   76.0831    2.8682 O.3     1  UNL1       -0.3794
     42 C          25.5581   75.5049    1.6375 C.3     1  UNL1        0.1693
     43 H          26.2652   76.9886    2.7138 H       1  UNL1        0.2105
@<TRIPOS>UNITY_ATOM_ATTR
2 1
charge -1
26 1
charge -1
@<TRIPOS>BOND
     1    25    28    1
     2    25    24    1
     3    25    26    1
     4    25    27    2
     5     1     4    1
     6     1    24    1
     7     1     2    1
     8     1     3    2
     9     6    11    1
    10     6    12    1
    11    29    36    1
    12    29    37    1
    13     7     9    1
    14     7    13    1
    15     8    10    1
    16     8    14    1
    17    28    37    1
    18     4     5    1
    19    30    33    1
    20    30    38    1
    21    31    34    1
    22    31    39    1
    23    32    35    1
    24    32    40    1
    25    41    42    1
    26    41    43    1
    27    15    19    2
    28    16    22    2
    29    17    12    1
    30    17    19   ar
    31    17    20   ar
    32    18    19   ar
    33    18    22   ar
    34    18    23    1
    35     9    10    1
    36     9    11    1
    37    10    12    1
    38    11     5    1
    39    33    34    1
    40    33    35    1
    41    34    36    1
    42    35    37    1
    43    36    42    1
    44    20    21   ar
    45    21    22   ar
@<TRIPOS>MOLECULE
*****
 43 45 0 0 0
SMALL
GASTEIGER

@<TRIPOS>ATOM
      1 P          21.2135   72.8052   -4.6552 P.3     1  UNL1        0.2189
      2 O          21.3444   74.2796   -4.0022 O.co2   1  UNL1       -0.4371
      3 O          21.8294   72.6575   -6.0154 O.2     1  UNL1       -0.5170
      4 O          19.6318   72.4776   -4.5608 O.3     1  UNL1       -0.3112
      5 C          19.1988   71.4952   -3.6360 C.3     1  UNL1        0.1811
      6 O          17.3033   71.6906   -5.0998 O.3     1  UNL1       -0.3308
      7 O          15.8517   69.9373   -3.1480 O.3     1  UNL1       -0.3794
      8 O          16.5187   68.1912   -5.1337 O.3     1  UNL1       -0.3779
      9 C          17.2196   69.8988   -3.5512 C.3     1  UNL1        0.1713
     10 C          17.3402   69.3258   -4.9479 C.3     1  UNL1        0.1895
     11 C          17.6895   71.3338   -3.7544 C.3     1  UNL1        0.1764
     12 C          16.9148   70.5029   -5.8091 C.3     1  UNL1        0.2383
     13 H          15.5293   69.0320   -3.0118 H       1  UNL1        0.2105
     14 H          16.8296   67.4700   -4.5645 H       1  UNL1        0.2106
     15 O          15.5372   70.6124   -8.2725 O.2     1  UNL1       -0.2464
     16 O          19.4631   70.4795  -10.6830 O.2     1  UNL1       -0.2670
     17 N          17.5520   70.4987   -7.0957 N.ar    1  UNL1       -0.2551
     18 N          17.4931   70.5463   -9.4707 N.ar    1  UNL1       -0.2743
     19 C          16.7686   70.5557   -8.2720 C.ar    1  UNL1        0.3323
     20 C          18.9387   70.4390   -7.1821 C.ar    1  UNL1        0.0869
     21 C          19.6143   70.4296   -8.3331 C.ar    1  UNL1        0.0795
     22 C          18.8709   70.4866   -9.6083 C.ar    1  UNL1        0.2626
     23 H          16.9684   70.5849  -10.3032 H       1  UNL1        0.1734
     24 O          21.8513   71.8471   -3.5203 O.3     1  UNL1       -0.2703
     25 P          23.2845   71.8941   -2.7741 P.3     1  UNL1        0.2208
     26 O          23.9063   73.3086   -3.2538 O.co2   1  UNL1       -0.4371
     27 O          24.1611   70.7069   -3.0498 O.2     1  UNL1       -0.5170
     28 O          22.9267   72.1138   -1.2157 O.3     1  UNL1       -0.2858
     29 O          23.8016   70.6560    0.4354 O.3     1  UNL1       -0.3258
     30 O          20.5399   72.1150    2.5050 O.3     1  UNL1       -0.3794
     31 O          23.1825   72.9646    3.2417 O.3     1  UNL1       -0.3794
     32 O          20.3225   71.5611   -0.3279 O.3     1  UNL1       -0.3775
     33 C          21.6389   72.1793    1.5920 C.3     1  UNL1        0.1715
     34 C          22.9229   71.8718    2.3649 C.3     1  UNL1        0.1694
     35 C          21.4234   71.1560    0.4786 C.3     1  UNL1        0.1967
     36 C          24.1062   71.6594    1.4111 C.3     1  UNL1        0.1761
     37 C          22.6766   70.9853   -0.3819 C.3     1  UNL1        0.2704
     38 H          20.6702   72.7626    3.2142 H       1  UNL1        0.2105
     39 H          22.4275   73.0883    3.8383 H       1  UNL1        0.2105
     40 H          19.5354   71.6654    0.2283 H       1  UNL1        0.2106
     41 O          25.1142   69.9134    2.6935 O.3     1  UNL1       -0.3794
     42 C          25.3604   71.1971    2.1497 C.3     1  UNL1        0.1693
     43 H          25.9040   69.6063    3.1663 H       1  UNL1        0.2105
@<TRIPOS>UNITY_ATOM_ATTR
2 1
charge -1
26 1
charge -1
@<TRIPOS>BOND
     1    25    28    1
     2    25    24    1
     3    25    26    1
     4    25    27    2
     5     1     4    1
     6     1    24    1
     7     1     2    1
     8     1     3    2
     9     6    11    1
    10     6    12    1
    11    29    36    1
    12    29    37    1
    13     7     9    1
    14     7    13    1
    15     8    10    1
    16     8    14    1
    17    28    37    1
    18     4     5    1
    19    30    33    1
    20    30    38    1
    21    31    34    1
    22    31    39    1
    23    32    35    1
    24    32    40    1
    25    41    42    1
    26    41    43    1
    27    15    19    2
    28    16    22    2
    29    17    12    1
    30    17    19   ar
    31    17    20   ar
    32    18    19   ar
    33    18    22   ar
    34    18    23    1
    35     9    10    1
    36     9    11    1
    37    10    12    1
    38    11     5    1
    39    33    34    1
    40    33    35    1
    41    34    36    1
    42    35    37    1
    43    36    42    1
    44    20    21   ar
    45    21    22   ar
@<TRIPOS>MOLECULE
*****
 43 45 0 0 0
SMALL
GASTEIGER

@<TRIPOS>ATOM
      1 P          23.4454   71.9309   -3.2789 P.3     1  UNL1        0.2189
      2 O          24.1371   72.9927   -4.2848 O.co2   1  UNL1       -0.4371
      3 O          24.2552   70.6979   -3.0043 O.2     1  UNL1       -0.5170
      4 O          21.9824   71.6817   -3.9234 O.3     1  UNL1       -0.3112
      5 C          21.5450   72.5422   -4.9607 C.3     1  UNL1        0.1811
      6 O          20.6482   70.5474   -5.9559 O.3     1  UNL1       -0.3308
      7 O          21.0227   71.9203   -8.5952 O.3     1  UNL1       -0.3794
      8 O          18.3538   72.2376   -8.1335 O.3     1  UNL1       -0.3779
      9 C          20.6389   72.4730   -7.3371 C.3     1  UNL1        0.1713
     10 C          19.2064   72.1019   -7.0148 C.3     1  UNL1        0.1895
     11 C          21.4104   71.7392   -6.2473 C.3     1  UNL1        0.1764
     12 C          19.3493   70.6594   -6.5601 C.3     1  UNL1        0.2383
     13 H          20.5431   72.3734   -9.3070 H       1  UNL1        0.2105
     14 H          18.2955   73.1727   -8.3843 H       1  UNL1        0.2106
     15 O          16.7389   69.8002   -7.2125 O.2     1  UNL1       -0.2464
     16 O          15.6102   69.2614   -2.7767 O.2     1  UNL1       -0.2670
     17 N          18.3528   70.2880   -5.5956 N.ar    1  UNL1       -0.2551
     18 N          16.1791   69.5324   -5.0033 N.ar    1  UNL1       -0.2743
     19 C          17.0721   69.8715   -6.0278 C.ar    1  UNL1        0.3323
     20 C          18.6497   70.3383   -4.2379 C.ar    1  UNL1        0.0869
     21 C          17.7865   70.0129   -3.2734 C.ar    1  UNL1        0.0795
     22 C          16.4267   69.5674   -3.6401 C.ar    1  UNL1        0.2626
     23 H          15.2807   69.2397   -5.2807 H       1  UNL1        0.1734
     24 O          23.1195   72.8264   -1.9733 O.3     1  UNL1       -0.2703
     25 P          22.0391   72.6219   -0.7885 P.3     1  UNL1        0.2208
     26 O          21.9523   71.0132   -0.6391 O.co2   1  UNL1       -0.4371
     27 O          20.7192   73.2928   -1.0367 O.2     1  UNL1       -0.5170
     28 O          22.7992   73.1149    0.5472 O.3     1  UNL1       -0.2858
     29 O          24.6995   72.4655    1.8057 O.3     1  UNL1       -0.3258
     30 O          21.9604   72.8094    4.8766 O.3     1  UNL1       -0.3794
     31 O          24.0277   74.7828    4.5928 O.3     1  UNL1       -0.3794
     32 O          21.1396   71.7152    2.3254 O.3     1  UNL1       -0.3775
     33 C          22.5679   73.1521    3.6280 C.3     1  UNL1        0.1715
     34 C          24.0235   73.5412    3.8937 C.3     1  UNL1        0.1694
     35 C          22.4957   71.9481    2.6907 C.3     1  UNL1        0.1967
     36 C          24.8123   73.6634    2.5830 C.3     1  UNL1        0.1761
     37 C          23.3537   72.1530    1.4409 C.3     1  UNL1        0.2704
     38 H          22.0025   73.5698    5.4762 H       1  UNL1        0.2105
     39 H          23.5259   74.6921    5.4182 H       1  UNL1        0.2105
     40 H          20.6070   71.5868    3.1251 H       1  UNL1        0.2106
     41 O          26.9207   72.6421    3.0529 O.3     1  UNL1       -0.3794
     42 C          26.3012   73.8957    2.8310 C.3     1  UNL1        0.1693
     43 H          27.8688   72.7744    3.2119 H       1  UNL1        0.2105
@<TRIPOS>UNITY_ATOM_ATTR
2 1
charge -1
26 1
charge -1
@<TRIPOS>BOND
     1    25    28    1
     2    25    24    1
     3    25    26    1
     4    25    27    2
     5     1     4    1
     6     1    24    1
     7     1     2    1
     8     1     3    2
     9     6    11    1
    10     6    12    1
    11    29    36    1
    12    29    37    1
    13     7     9    1
    14     7    13    1
    15     8    10    1
    16     8    14    1
    17    28    37    1
    18     4     5    1
    19    30    33    1
    20    30    38    1
    21    31    34    1
    22    31    39    1
    23    32    35    1
    24    32    40    1
    25    41    42    1
    26    41    43    1
    27    15    19    2
    28    16    22    2
    29    17    12    1
    30    17    19   ar
    31    17    20   ar
    32    18    19   ar
    33    18    22   ar
    34    18    23    1
    35     9    10    1
    36     9    11    1
    37    10    12    1
    38    11     5    1
    39    33    34    1
    40    33    35    1
    41    34    36    1
    42    35    37    1
    43    36    42    1
    44    20    21   ar
    45    21    22   ar
@<TRIPOS>MOLECULE
*****
 43 45 0 0 0
SMALL
GASTEIGER

@<TRIPOS>ATOM
      1 P          22.7923   71.5371   -2.6838 P.3     1  UNL1        0.2189
      2 O          22.8647   73.1344   -2.4375 O.co2   1  UNL1       -0.4371
      3 O          24.1125   70.8769   -2.9533 O.2     1  UNL1       -0.5170
      4 O          21.6751   71.3729   -3.8426 O.3     1  UNL1       -0.3112
      5 C          21.6102   72.3540   -4.8630 C.3     1  UNL1        0.1811
      6 O          20.5806   70.4903   -5.9767 O.3     1  UNL1       -0.3308
      7 O          20.9405   72.0477   -8.5135 O.3     1  UNL1       -0.3794
      8 O          18.3076   72.4573   -7.9330 O.3     1  UNL1       -0.3779
      9 C          20.6261   72.5172   -7.2035 C.3     1  UNL1        0.1713
     10 C          19.1875   72.1922   -6.8596 C.3     1  UNL1        0.1895
     11 C          21.3934   71.6628   -6.2022 C.3     1  UNL1        0.1764
     12 C          19.2704   70.7129   -6.5233 C.3     1  UNL1        0.2383
     13 H          20.4623   72.5785   -9.1704 H       1  UNL1        0.2105
     14 H          18.2895   73.4110   -8.1085 H       1  UNL1        0.2106
     15 O          16.6399   69.9045   -7.1594 O.2     1  UNL1       -0.2464
     16 O          15.5853   69.2110   -2.7267 O.2     1  UNL1       -0.2670
     17 N          18.2875   70.3154   -5.5551 N.ar    1  UNL1       -0.2551
     18 N          16.1170   69.5597   -4.9518 N.ar    1  UNL1       -0.2743
     19 C          16.9950   69.9281   -5.9791 C.ar    1  UNL1        0.3323
     20 C          18.6092   70.3119   -4.2022 C.ar    1  UNL1        0.0869
     21 C          17.7601   69.9591   -3.2349 C.ar    1  UNL1        0.0795
     22 C          16.3894   69.5411   -3.5930 C.ar    1  UNL1        0.2626
     23 H          15.2107   69.2865   -5.2233 H       1  UNL1        0.1734
     24 O          22.0286   71.0001   -1.3642 O.3     1  UNL1       -0.2703
     25 P          22.4585   71.0221    0.1939 P.3     1  UNL1        0.2208
     26 O          24.0750   70.9940    0.1332 O.co2   1  UNL1       -0.4371
     27 O          21.8505   69.9225    1.0156 O.2     1  UNL1       -0.5170
     28 O          22.0954   72.5120    0.6970 O.3     1  UNL1       -0.2858
     29 O          22.8158   74.6445    1.4386 O.3     1  UNL1       -0.3258
     30 O          21.9331   72.9383    5.0938 O.3     1  UNL1       -0.3794
     31 O          20.2066   74.9679    4.0225 O.3     1  UNL1       -0.3794
     32 O          23.1617   71.3426    3.0144 O.3     1  UNL1       -0.3775
     33 C          21.7637   73.1822    3.6948 C.3     1  UNL1        0.1715
     34 C          21.4985   74.6759    3.4971 C.3     1  UNL1        0.1694
     35 C          23.0326   72.7591    2.9571 C.3     1  UNL1        0.1967
     36 C          21.5710   75.0597    2.0130 C.3     1  UNL1        0.1761
     37 C          23.0247   73.2324    1.5024 C.3     1  UNL1        0.2704
     38 H          21.1306   73.2043    5.5680 H       1  UNL1        0.2105
     39 H          20.1740   74.7205    4.9600 H       1  UNL1        0.2105
     40 H          23.1657   71.0556    3.9404 H       1  UNL1        0.2106
     41 O          22.1518   77.2158    2.8633 O.3     1  UNL1       -0.3794
     42 C          21.4661   76.5693    1.8068 C.3     1  UNL1        0.1693
     43 H          22.0937   78.1772    2.7451 H       1  UNL1        0.2105
@<TRIPOS>UNITY_ATOM_ATTR
2 1
charge -1
26 1
charge -1
@<TRIPOS>BOND
     1    25    28    1
     2    25    24    1
     3    25    26    1
     4    25    27    2
     5     1     4    1
     6     1    24    1
     7     1     2    1
     8     1     3    2
     9     6    11    1
    10     6    12    1
    11    29    36    1
    12    29    37    1
    13     7     9    1
    14     7    13    1
    15     8    10    1
    16     8    14    1
    17    28    37    1
    18     4     5    1
    19    30    33    1
    20    30    38    1
    21    31    34    1
    22    31    39    1
    23    32    35    1
    24    32    40    1
    25    41    42    1
    26    41    43    1
    27    15    19    2
    28    16    22    2
    29    17    12    1
    30    17    19   ar
    31    17    20   ar
    32    18    19   ar
    33    18    22   ar
    34    18    23    1
    35     9    10    1
    36     9    11    1
    37    10    12    1
    38    11     5    1
    39    33    34    1
    40    33    35    1
    41    34    36    1
    42    35    37    1
    43    36    42    1
    44    20    21   ar
    45    21    22   ar
@<TRIPOS>MOLECULE
*****
 43 45 0 0 0
SMALL
GASTEIGER

@<TRIPOS>ATOM
      1 P          21.3080   72.5057   -4.7647 P.3     1  UNL1        0.2189
      2 O          21.5951   74.0534   -4.3907 O.co2   1  UNL1       -0.4371
      3 O          21.8911   72.0505   -6.0702 O.2     1  UNL1       -0.5170
      4 O          19.7024   72.3637   -4.6247 O.3     1  UNL1       -0.3112
      5 C          19.1848   71.4499   -3.6734 C.3     1  UNL1        0.1811
      6 O          17.3328   71.7545   -5.1737 O.3     1  UNL1       -0.3308
      7 O          15.7326   70.1254   -3.2305 O.3     1  UNL1       -0.3794
      8 O          16.3156   68.3153   -5.1850 O.3     1  UNL1       -0.3779
      9 C          17.1017   69.9906   -3.6081 C.3     1  UNL1        0.1713
     10 C          17.2081   69.3945   -4.9962 C.3     1  UNL1        0.1895
     11 C          17.6704   71.3885   -3.8179 C.3     1  UNL1        0.1764
     12 C          16.8779   70.5872   -5.8775 C.3     1  UNL1        0.2383
     13 H          15.3478   69.2454   -3.0906 H       1  UNL1        0.2105
     14 H          16.5674   67.5817   -4.6026 H       1  UNL1        0.2106
     15 O          15.5483   70.7001   -8.3669 O.2     1  UNL1       -0.2464
     16 O          19.5046   70.3389  -10.7033 O.2     1  UNL1       -0.2670
     17 N          17.5359   70.5252   -7.1521 N.ar    1  UNL1       -0.2551
     18 N          17.5193   70.5203   -9.5282 N.ar    1  UNL1       -0.2743
     19 C          16.7758   70.5893   -8.3431 C.ar    1  UNL1        0.3323
     20 C          18.9198   70.4025   -7.2123 C.ar    1  UNL1        0.0869
     21 C          19.6136   70.3368   -8.3505 C.ar    1  UNL1        0.0795
     22 C          18.8952   70.3969   -9.6398 C.ar    1  UNL1        0.2626
     23 H          17.0109   70.5627  -10.3706 H       1  UNL1        0.1734
     24 O          21.8575   71.7108   -3.4689 O.3     1  UNL1       -0.2703
     25 P          23.2478   71.8405   -2.6546 P.3     1  UNL1        0.2208
     26 O          23.6826   73.3785   -2.9054 O.co2   1  UNL1       -0.4371
     27 O          24.2874   70.8311   -3.0474 O.2     1  UNL1       -0.5170
     28 O          22.8172   71.7869   -1.1000 O.3     1  UNL1       -0.2858
     29 O          22.4330   73.7466    0.1761 O.3     1  UNL1       -0.3258
     30 O          23.3934   71.1447    3.2354 O.3     1  UNL1       -0.3794
     31 O          20.6713   71.9973    2.9011 O.3     1  UNL1       -0.3794
     32 O          24.8061   70.9924    0.7134 O.3     1  UNL1       -0.3775
     33 C          22.8272   71.5258    1.9786 C.3     1  UNL1        0.1715
     34 C          21.7741   72.6057    2.2347 C.3     1  UNL1        0.1694
     35 C          23.9355   72.0597    1.0731 C.3     1  UNL1        0.1967
     36 C          21.3139   73.2532    0.9217 C.3     1  UNL1        0.1761
     37 C          23.3681   72.7268   -0.1811 C.3     1  UNL1        0.2704
     38 H          22.6949   70.8044    3.8149 H       1  UNL1        0.2105
     39 H          20.9755   71.5918    3.7283 H       1  UNL1        0.2105
     40 H          25.1589   70.5786    1.5159 H       1  UNL1        0.2106
     41 O          19.0959   74.1067    0.6748 O.3     1  UNL1       -0.3794
     42 C          20.3821   74.4386    1.1644 C.3     1  UNL1        0.1693
     43 H          18.4920   74.8518    0.8227 H       1  UNL1        0.2105
@<TRIPOS>UNITY_ATOM_ATTR
2 1
charge -1
26 1
charge -1
@<TRIPOS>BOND
     1    25    28    1
     2    25    24    1
     3    25    26    1
     4    25    27    2
     5     1     4    1
     6     1    24    1
     7     1     2    1
     8     1     3    2
     9     6    11    1
    10     6    12    1
    11    29    36    1
    12    29    37    1
    13     7     9    1
    14     7    13    1
    15     8    10    1
    16     8    14    1
    17    28    37    1
    18     4     5    1
    19    30    33    1
    20    30    38    1
    21    31    34    1
    22    31    39    1
    23    32    35    1
    24    32    40    1
    25    41    42    1
    26    41    43    1
    27    15    19    2
    28    16    22    2
    29    17    12    1
    30    17    19   ar
    31    17    20   ar
    32    18    19   ar
    33    18    22   ar
    34    18    23    1
    35     9    10    1
    36     9    11    1
    37    10    12    1
    38    11     5    1
    39    33    34    1
    40    33    35    1
    41    34    36    1
    42    35    37    1
    43    36    42    1
    44    20    21   ar
    45    21    22   ar
@<TRIPOS>MOLECULE
*****
 43 45 0 0 0
SMALL
GASTEIGER

@<TRIPOS>ATOM
      1 P          20.1207   72.1069   -1.4986 P.3     1  UNL1        0.2189
      2 O          19.1076   73.3180   -1.8509 O.co2   1  UNL1       -0.4371
      3 O          21.5091   72.2626   -2.0458 O.2     1  UNL1       -0.5170
      4 O          19.3226   70.7821   -1.9740 O.3     1  UNL1       -0.3112
      5 C          19.0079   70.6390   -3.3482 C.3     1  UNL1        0.1811
      6 O          17.2996   71.4843   -4.8114 O.3     1  UNL1       -0.3308
      7 O          15.3805   69.8036   -3.2356 O.3     1  UNL1       -0.3794
      8 O          15.7903   68.2987   -5.4725 O.3     1  UNL1       -0.3779
      9 C          16.7325   69.5288   -3.5989 C.3     1  UNL1        0.1713
     10 C          16.8207   69.1776   -5.0694 C.3     1  UNL1        0.1895
     11 C          17.5102   70.8375   -3.5372 C.3     1  UNL1        0.1764
     12 C          16.7147   70.5433   -5.7265 C.3     1  UNL1        0.2383
     13 H          14.8641   68.9825   -3.2673 H       1  UNL1        0.2105
     14 H          15.9016   67.4441   -5.0276 H       1  UNL1        0.2106
     15 O          15.4783   70.4589   -8.2646 O.2     1  UNL1       -0.2464
     16 O          19.5229   70.7925  -10.4489 O.2     1  UNL1       -0.2670
     17 N          17.4206   70.6067   -6.9751 N.ar    1  UNL1       -0.2551
     18 N          17.4932   70.6253   -9.3501 N.ar    1  UNL1       -0.2743
     19 C          16.7052   70.5554   -8.1942 C.ar    1  UNL1        0.3323
     20 C          18.8067   70.7187   -6.9826 C.ar    1  UNL1        0.0869
     21 C          19.5434   70.7829   -8.0936 C.ar    1  UNL1        0.0795
     22 C          18.8734   70.7358   -9.4093 C.ar    1  UNL1        0.2626
     23 H          17.0165   70.5910  -10.2112 H       1  UNL1        0.1734
     24 O          20.0385   72.0216    0.1135 O.3     1  UNL1       -0.2703
     25 P          21.1978   71.8602    1.2284 P.3     1  UNL1        0.2208
     26 O          21.7529   70.3623    0.9724 O.co2   1  UNL1       -0.4371
     27 O          20.7396   72.1190    2.6345 O.2     1  UNL1       -0.5170
     28 O          22.3873   72.8275    0.7239 O.3     1  UNL1       -0.2858
     29 O          23.7478   74.4601    1.7729 O.3     1  UNL1       -0.3258
     30 O          22.4577   72.4233    5.1252 O.3     1  UNL1       -0.3794
     31 O          21.4219   75.0443    4.5725 O.3     1  UNL1       -0.3794
     32 O          23.0880   70.9669    2.7043 O.3     1  UNL1       -0.3775
     33 C          22.3426   72.9727    3.8098 C.3     1  UNL1        0.1715
     34 C          22.5486   74.4859    3.9024 C.3     1  UNL1        0.1694
     35 C          23.4025   72.3399    2.9100 C.3     1  UNL1        0.1967
     36 C          22.7050   75.1100    2.5091 C.3     1  UNL1        0.1761
     37 C          23.5107   73.0659    1.5679 C.3     1  UNL1        0.2704
     38 H          21.7872   72.8206    5.7014 H       1  UNL1        0.2105
     39 H          21.3341   74.6415    5.4506 H       1  UNL1        0.2105
     40 H          23.0226   70.5183    3.5612 H       1  UNL1        0.2106
     41 O          21.9058   77.3222    2.9289 O.3     1  UNL1       -0.3794
     42 C          23.0681   76.5915    2.5835 C.3     1  UNL1        0.1693
     43 H          22.1219   78.2669    2.9802 H       1  UNL1        0.2105
@<TRIPOS>UNITY_ATOM_ATTR
2 1
charge -1
26 1
charge -1
@<TRIPOS>BOND
     1    25    28    1
     2    25    24    1
     3    25    26    1
     4    25    27    2
     5     1     4    1
     6     1    24    1
     7     1     2    1
     8     1     3    2
     9     6    11    1
    10     6    12    1
    11    29    36    1
    12    29    37    1
    13     7     9    1
    14     7    13    1
    15     8    10    1
    16     8    14    1
    17    28    37    1
    18     4     5    1
    19    30    33    1
    20    30    38    1
    21    31    34    1
    22    31    39    1
    23    32    35    1
    24    32    40    1
    25    41    42    1
    26    41    43    1
    27    15    19    2
    28    16    22    2
    29    17    12    1
    30    17    19   ar
    31    17    20   ar
    32    18    19   ar
    33    18    22   ar
    34    18    23    1
    35     9    10    1
    36     9    11    1
    37    10    12    1
    38    11     5    1
    39    33    34    1
    40    33    35    1
    41    34    36    1
    42    35    37    1
    43    36    42    1
    44    20    21   ar
    45    21    22   ar
@<TRIPOS>MOLECULE
*****
 43 45 0 0 0
SMALL
GASTEIGER

@<TRIPOS>ATOM
      1 P          16.0913   69.7815   -2.4788 P.3     1  UNL1        0.2189
      2 O          15.4975   71.2850   -2.5439 O.co2   1  UNL1       -0.4371
      3 O          15.8950   68.9681   -3.7243 O.2     1  UNL1       -0.5170
      4 O          15.4449   69.1667   -1.1289 O.3     1  UNL1       -0.3112
      5 C          14.4329   69.9051   -0.4668 C.3     1  UNL1        0.1811
      6 O          12.7644   68.1793   -0.5760 O.3     1  UNL1       -0.3308
      7 O          10.8815   70.3183   -1.5088 O.3     1  UNL1       -0.3794
      8 O          10.2135   70.0439    1.1208 O.3     1  UNL1       -0.3779
      9 C          11.9389   70.4006   -0.5546 C.3     1  UNL1        0.1713
     10 C          11.5349   69.7219    0.7376 C.3     1  UNL1        0.1895
     11 C          13.0777   69.5114   -1.0384 C.3     1  UNL1        0.1764
     12 C          11.7006   68.2529    0.3872 C.3     1  UNL1        0.2383
     13 H          10.1427   70.8784   -1.2216 H       1  UNL1        0.2105
     14 H          10.1595   70.9886    1.3337 H       1  UNL1        0.2106
     15 O           9.8646   66.6946    1.8633 O.2     1  UNL1       -0.2464
     16 O          13.1474   65.2275    4.7464 O.2     1  UNL1       -0.2670
     17 N          12.0484   67.4536    1.5280 N.ar    1  UNL1       -0.2551
     18 N          11.5007   65.9652    3.2976 N.ar    1  UNL1       -0.2743
     19 C          11.0507   66.7090    2.1992 C.ar    1  UNL1        0.3323
     20 C          13.3663   67.4133    1.9702 C.ar    1  UNL1        0.0869
     21 C          13.7789   66.7000    3.0200 C.ar    1  UNL1        0.0795
     22 C          12.7993   65.8938    3.7765 C.ar    1  UNL1        0.2626
     23 H          10.8231   65.4389    3.7809 H       1  UNL1        0.1734
     24 O          17.6363   70.0185   -2.0666 O.3     1  UNL1       -0.2703
     25 P          18.6430   71.2435   -2.3811 P.3     1  UNL1        0.2208
     26 O          20.1055   70.5627   -2.2582 O.co2   1  UNL1       -0.4371
     27 O          18.4434   72.4449   -1.5032 O.2     1  UNL1       -0.5170
     28 O          18.4578   71.5297   -3.9587 O.3     1  UNL1       -0.2858
     29 O          18.0360   69.9953   -5.7149 O.3     1  UNL1       -0.3258
     30 O          20.4226   72.6836   -7.7465 O.3     1  UNL1       -0.3794
     31 O          17.6049   72.5930   -8.2945 O.3     1  UNL1       -0.3794
     32 O          21.0204   72.0150   -4.9942 O.3     1  UNL1       -0.3775
     33 C          19.4385   72.2777   -6.7914 C.3     1  UNL1        0.1715
     34 C          18.2929   71.5969   -7.5430 C.3     1  UNL1        0.1694
     35 C          20.0778   71.3114   -5.7960 C.3     1  UNL1        0.1967
     36 C          17.3302   70.9001   -6.5721 C.3     1  UNL1        0.1761
     37 C          19.0285   70.6361   -4.9110 C.3     1  UNL1        0.2704
     38 H          20.0233   73.2977   -8.3813 H       1  UNL1        0.2105
     39 H          18.2241   73.0257   -8.9033 H       1  UNL1        0.2105
     40 H          21.6794   72.4377   -5.5660 H       1  UNL1        0.2106
     41 O          15.9706   70.7304   -8.5295 O.3     1  UNL1       -0.3794
     42 C          16.2693   70.0832   -7.3063 C.3     1  UNL1        0.1693
     43 H          15.2969   70.2214   -9.0079 H       1  UNL1        0.2105
@<TRIPOS>UNITY_ATOM_ATTR
2 1
charge -1
26 1
charge -1
@<TRIPOS>BOND
     1    25    28    1
     2    25    24    1
     3    25    26    1
     4    25    27    2
     5     1     4    1
     6     1    24    1
     7     1     2    1
     8     1     3    2
     9     6    11    1
    10     6    12    1
    11    29    36    1
    12    29    37    1
    13     7     9    1
    14     7    13    1
    15     8    10    1
    16     8    14    1
    17    28    37    1
    18     4     5    1
    19    30    33    1
    20    30    38    1
    21    31    34    1
    22    31    39    1
    23    32    35    1
    24    32    40    1
    25    41    42    1
    26    41    43    1
    27    15    19    2
    28    16    22    2
    29    17    12    1
    30    17    19   ar
    31    17    20   ar
    32    18    19   ar
    33    18    22   ar
    34    18    23    1
    35     9    10    1
    36     9    11    1
    37    10    12    1
    38    11     5    1
    39    33    34    1
    40    33    35    1
    41    34    36    1
    42    35    37    1
    43    36    42    1
    44    20    21   ar
    45    21    22   ar
@<TRIPOS>MOLECULE
*****
 43 45 0 0 0
SMALL
GASTEIGER

@<TRIPOS>ATOM
      1 P          20.9470   71.6047   -4.4260 P.3     1  UNL1        0.2189
      2 O          19.8396   72.7726   -4.2613 O.co2   1  UNL1       -0.4371
      3 O          21.8673   71.7649   -5.6002 O.2     1  UNL1       -0.5170
      4 O          20.0792   70.2394   -4.3945 O.3     1  UNL1       -0.3112
      5 C          19.5344   69.8129   -3.1580 C.3     1  UNL1        0.1811
      6 O          17.3089   69.4339   -2.3351 O.3     1  UNL1       -0.3308
      7 O          16.6342   68.5395   -5.1164 O.3     1  UNL1       -0.3794
      8 O          15.6412   71.0785   -5.0512 O.3     1  UNL1       -0.3779
      9 C          17.5181   69.5755   -4.6914 C.3     1  UNL1        0.1713
     10 C          16.7292   70.7724   -4.2030 C.3     1  UNL1        0.1895
     11 C          18.2096   69.1086   -3.4165 C.3     1  UNL1        0.1764
     12 C          16.2848   70.3155   -2.8239 C.3     1  UNL1        0.2383
     13 H          16.1812   68.8145   -5.9295 H       1  UNL1        0.2105
     14 H          15.9754   71.3639   -5.9158 H       1  UNL1        0.2106
     15 O          14.0281   70.7152   -1.1731 O.2     1  UNL1       -0.2464
     16 O          15.8168   74.5489    0.6558 O.2     1  UNL1       -0.2670
     17 N          16.1345   71.4096   -1.9065 N.ar    1  UNL1       -0.2551
     18 N          14.9206   72.6237   -0.2636 N.ar    1  UNL1       -0.2743
     19 C          14.9614   71.5191   -1.1240 C.ar    1  UNL1        0.3323
     20 C          17.1436   72.3593   -1.7892 C.ar    1  UNL1        0.0869
     21 C          17.0888   73.4075   -0.9649 C.ar    1  UNL1        0.0795
     22 C          15.8973   73.5953   -0.1123 C.ar    1  UNL1        0.2626
     23 H          14.1127   72.7207    0.2910 H       1  UNL1        0.1734
     24 O          21.6857   71.5989   -2.9882 O.3     1  UNL1       -0.2703
     25 P          23.2199   71.9055   -2.5817 P.3     1  UNL1        0.2208
     26 O          23.4643   73.3985   -3.1552 O.co2   1  UNL1       -0.4371
     27 O          24.2032   70.8840   -3.0751 O.2     1  UNL1       -0.5170
     28 O          23.1895   72.0848   -0.9780 O.3     1  UNL1       -0.2858
     29 O          24.2055   70.7129    0.6659 O.3     1  UNL1       -0.3258
     30 O          20.8460   71.8794    2.7645 O.3     1  UNL1       -0.3794
     31 O          23.4093   72.9615    3.4763 O.3     1  UNL1       -0.3794
     32 O          20.6530   71.3043   -0.0660 O.3     1  UNL1       -0.3775
     33 C          21.9266   72.0398    1.8414 C.3     1  UNL1        0.1715
     34 C          23.2399   71.8487    2.6027 C.3     1  UNL1        0.1694
     35 C          21.7928   70.9998    0.7307 C.3     1  UNL1        0.1967
     36 C          24.4287   71.7408    1.6381 C.3     1  UNL1        0.1761
     37 C          23.0483   70.9398   -0.1412 C.3     1  UNL1        0.2704
     38 H          20.9248   72.5372    3.4721 H       1  UNL1        0.2105
     39 H          22.6518   73.0186    4.0798 H       1  UNL1        0.2105
     40 H          19.8648   71.3391    0.4974 H       1  UNL1        0.2106
     41 O          26.2827   72.5857    2.8861 O.3     1  UNL1       -0.3794
     42 C          25.7256   71.3929    2.3654 C.3     1  UNL1        0.1693
     43 H          27.1086   72.3796    3.3521 H       1  UNL1        0.2105
@<TRIPOS>UNITY_ATOM_ATTR
2 1
charge -1
26 1
charge -1
@<TRIPOS>BOND
     1    25    28    1
     2    25    24    1
     3    25    26    1
     4    25    27    2
     5     1     4    1
     6     1    24    1
     7     1     2    1
     8     1     3    2
     9     6    11    1
    10     6    12    1
    11    29    36    1
    12    29    37    1
    13     7     9    1
    14     7    13    1
    15     8    10    1
    16     8    14    1
    17    28    37    1
    18     4     5    1
    19    30    33    1
    20    30    38    1
    21    31    34    1
    22    31    39    1
    23    32    35    1
    24    32    40    1
    25    41    42    1
    26    41    43    1
    27    15    19    2
    28    16    22    2
    29    17    12    1
    30    17    19   ar
    31    17    20   ar
    32    18    19   ar
    33    18    22   ar
    34    18    23    1
    35     9    10    1
    36     9    11    1
    37    10    12    1
    38    11     5    1
    39    33    34    1
    40    33    35    1
    41    34    36    1
    42    35    37    1
    43    36    42    1
    44    20    21   ar
    45    21    22   ar
@<TRIPOS>MOLECULE
*****
 43 45 0 0 0
SMALL
GASTEIGER

@<TRIPOS>ATOM
      1 P          22.8648   72.6462   -3.7189 P.3     1  UNL1        0.2189
      2 O          22.4498   71.1166   -3.3943 O.co2   1  UNL1       -0.4371
      3 O          24.2120   72.8155   -4.3576 O.2     1  UNL1       -0.5170
      4 O          22.6538   73.4132   -2.3100 O.3     1  UNL1       -0.3112
      5 C          21.6666   74.4268   -2.2333 C.3     1  UNL1        0.1811
      6 O          20.9256   72.7002   -0.7354 O.3     1  UNL1       -0.3308
      7 O          18.8197   74.6386    0.1582 O.3     1  UNL1       -0.3794
      8 O          20.6746   74.8163    2.1494 O.3     1  UNL1       -0.3779
      9 C          20.1702   74.8883   -0.2280 C.3     1  UNL1        0.1713
     10 C          21.1205   74.4396    0.8625 C.3     1  UNL1        0.1895
     11 C          20.5172   73.9346   -1.3645 C.3     1  UNL1        0.1764
     12 C          21.1357   72.9330    0.6669 C.3     1  UNL1        0.2383
     13 H          18.5751   75.2362    0.8828 H       1  UNL1        0.2105
     14 H          20.6829   75.7833    2.2243 H       1  UNL1        0.2106
     15 O          21.5434   70.1640    1.0467 O.2     1  UNL1       -0.2464
     16 O          25.9730   70.7827    2.1589 O.2     1  UNL1       -0.2670
     17 N          22.3856   72.3429    1.0554 N.ar    1  UNL1       -0.2551
     18 N          23.7487   70.4743    1.6001 N.ar    1  UNL1       -0.2743
     19 C          22.4841   70.9416    1.2202 C.ar    1  UNL1        0.3323
     20 C          23.4970   73.1512    1.2685 C.ar    1  UNL1        0.0869
     21 C          24.6956   72.6900    1.6317 C.ar    1  UNL1        0.0795
     22 C          24.8833   71.2376    1.8251 C.ar    1  UNL1        0.2626
     23 H          23.8410   69.5013    1.7211 H       1  UNL1        0.1734
     24 O          21.6259   73.1774   -4.6110 O.3     1  UNL1       -0.2703
     25 P          21.2946   72.9958   -6.1827 P.3     1  UNL1        0.2208
     26 O          22.3351   71.8488   -6.6510 O.co2   1  UNL1       -0.4371
     27 O          21.3736   74.2661   -6.9790 O.2     1  UNL1       -0.5170
     28 O          19.8511   72.2746   -6.2152 O.3     1  UNL1       -0.2858
     29 O          18.9280   70.1926   -5.5599 O.3     1  UNL1       -0.3258
     30 O          17.4096   70.4100   -9.3937 O.3     1  UNL1       -0.3794
     31 O          15.6573   70.7931   -7.1507 O.3     1  UNL1       -0.3794
     32 O          20.0965   71.3399   -8.8498 O.3     1  UNL1       -0.3775
     33 C          17.8356   70.9262   -8.1297 C.3     1  UNL1        0.1715
     34 C          16.9821   70.2811   -7.0360 C.3     1  UNL1        0.1694
     35 C          19.3123   70.5925   -7.9263 C.3     1  UNL1        0.1967
     36 C          17.5509   70.5781   -5.6420 C.3     1  UNL1        0.1761
     37 C          19.7640   70.8795   -6.4932 C.3     1  UNL1        0.2704
     38 H          16.4729   70.6189   -9.5293 H       1  UNL1        0.2105
     39 H          15.3100   70.5994   -8.0356 H       1  UNL1        0.2105
     40 H          19.8010   71.1492   -9.7533 H       1  UNL1        0.2106
     41 O          16.0519   68.7831   -5.1520 O.3     1  UNL1       -0.3794
     42 C          16.8082   69.8157   -4.5469 C.3     1  UNL1        0.1693
     43 H          15.5740   68.2892   -4.4669 H       1  UNL1        0.2105
@<TRIPOS>UNITY_ATOM_ATTR
2 1
charge -1
26 1
charge -1
@<TRIPOS>BOND
     1    25    28    1
     2    25    24    1
     3    25    26    1
     4    25    27    2
     5     1     4    1
     6     1    24    1
     7     1     2    1
     8     1     3    2
     9     6    11    1
    10     6    12    1
    11    29    36    1
    12    29    37    1
    13     7     9    1
    14     7    13    1
    15     8    10    1
    16     8    14    1
    17    28    37    1
    18     4     5    1
    19    30    33    1
    20    30    38    1
    21    31    34    1
    22    31    39    1
    23    32    35    1
    24    32    40    1
    25    41    42    1
    26    41    43    1
    27    15    19    2
    28    16    22    2
    29    17    12    1
    30    17    19   ar
    31    17    20   ar
    32    18    19   ar
    33    18    22   ar
    34    18    23    1
    35     9    10    1
    36     9    11    1
    37    10    12    1
    38    11     5    1
    39    33    34    1
    40    33    35    1
    41    34    36    1
    42    35    37    1
    43    36    42    1
    44    20    21   ar
    45    21    22   ar
@<TRIPOS>MOLECULE
*****
 43 45 0 0 0
SMALL
GASTEIGER

@<TRIPOS>ATOM
      1 P          21.7569   72.4464   -5.4436 P.3     1  UNL1        0.2189
      2 O          20.9255   73.8195   -5.2414 O.co2   1  UNL1       -0.4371
      3 O          23.0715   72.5997   -6.1504 O.2     1  UNL1       -0.5170
      4 O          20.6940   71.4486   -6.1455 O.3     1  UNL1       -0.3112
      5 C          20.3161   71.6991   -7.4880 C.3     1  UNL1        0.1811
      6 O          18.9591   69.7981   -6.9233 O.3     1  UNL1       -0.3308
      7 O          18.2166   69.7014   -9.8268 O.3     1  UNL1       -0.3794
      8 O          16.0445   70.9028   -8.6976 O.3     1  UNL1       -0.3779
      9 C          18.4567   70.8348   -8.9943 C.3     1  UNL1        0.1713
     10 C          17.2921   71.0501   -8.0504 C.3     1  UNL1        0.1895
     11 C          19.5841   70.4802   -8.0326 C.3     1  UNL1        0.1764
     12 C          17.5357   69.9798   -7.0000 C.3     1  UNL1        0.2383
     13 H          17.5006   69.9040  -10.4499 H       1  UNL1        0.2105
     14 H          15.9366   71.6068   -9.3561 H       1  UNL1        0.2106
     15 O          16.3170   68.2057   -5.1710 O.2     1  UNL1       -0.2464
     16 O          15.6853   71.5516   -2.0650 O.2     1  UNL1       -0.2670
     17 N          17.0438   70.3604   -5.7060 N.ar    1  UNL1       -0.2551
     18 N          16.0036   69.8731   -3.6259 N.ar    1  UNL1       -0.2743
     19 C          16.4476   69.3926   -4.8644 C.ar    1  UNL1        0.3323
     20 C          17.1552   71.6805   -5.2830 C.ar    1  UNL1        0.0869
     21 C          16.7256   72.1229   -4.0994 C.ar    1  UNL1        0.0795
     22 C          16.0906   71.1756   -3.1605 C.ar    1  UNL1        0.2626
     23 H          15.5845   69.2168   -3.0231 H       1  UNL1        0.1734
     24 O          21.8654   71.8624   -3.9402 O.3     1  UNL1       -0.2703
     25 P          23.0771   71.9018   -2.8711 P.3     1  UNL1        0.2208
     26 O          23.6603   73.4029   -3.0263 O.co2   1  UNL1       -0.4371
     27 O          24.0989   70.8180   -3.0588 O.2     1  UNL1       -0.5170
     28 O          22.3506   71.8937   -1.4298 O.3     1  UNL1       -0.2858
     29 O          24.0538   72.4528    0.1204 O.3     1  UNL1       -0.3258
     30 O          20.8885   72.0371    2.7393 O.3     1  UNL1       -0.3794
     31 O          21.9080   74.6569    2.1516 O.3     1  UNL1       -0.3794
     32 O          21.1455   70.2364    0.4874 O.3     1  UNL1       -0.3775
     33 C          21.5214   72.3867    1.5054 C.3     1  UNL1        0.1715
     34 C          22.5804   73.4524    1.7946 C.3     1  UNL1        0.1694
     35 C          22.1648   71.1389    0.9033 C.3     1  UNL1        0.1967
     36 C          23.4805   73.6847    0.5736 C.3     1  UNL1        0.1761
     37 C          23.0779   71.4863   -0.2738 C.3     1  UNL1        0.2704
     38 H          20.4776   72.8250    3.1266 H       1  UNL1        0.2105
     39 H          21.3427   74.4965    2.9235 H       1  UNL1        0.2105
     40 H          20.5744   70.0241    1.2415 H       1  UNL1        0.2106
     41 O          25.4262   74.0455    1.9126 O.3     1  UNL1       -0.3794
     42 C          24.6401   74.6270    0.8888 C.3     1  UNL1        0.1693
     43 H          26.1683   74.6341    2.1235 H       1  UNL1        0.2105
@<TRIPOS>UNITY_ATOM_ATTR
2 1
charge -1
26 1
charge -1
@<TRIPOS>BOND
     1    25    28    1
     2    25    24    1
     3    25    26    1
     4    25    27    2
     5     1     4    1
     6     1    24    1
     7     1     2    1
     8     1     3    2
     9     6    11    1
    10     6    12    1
    11    29    36    1
    12    29    37    1
    13     7     9    1
    14     7    13    1
    15     8    10    1
    16     8    14    1
    17    28    37    1
    18     4     5    1
    19    30    33    1
    20    30    38    1
    21    31    34    1
    22    31    39    1
    23    32    35    1
    24    32    40    1
    25    41    42    1
    26    41    43    1
    27    15    19    2
    28    16    22    2
    29    17    12    1
    30    17    19   ar
    31    17    20   ar
    32    18    19   ar
    33    18    22   ar
    34    18    23    1
    35     9    10    1
    36     9    11    1
    37    10    12    1
    38    11     5    1
    39    33    34    1
    40    33    35    1
    41    34    36    1
    42    35    37    1
    43    36    42    1
    44    20    21   ar
    45    21    22   ar
@<TRIPOS>MOLECULE
*****
 43 45 0 0 0
SMALL
GASTEIGER

@<TRIPOS>ATOM
      1 P          22.9319   71.5964   -2.7410 P.3     1  UNL1        0.2189
      2 O          24.2694   70.7813   -3.1463 O.co2   1  UNL1       -0.4371
      3 O          21.7220   70.7448   -2.4916 O.2     1  UNL1       -0.5170
      4 O          22.7826   72.7040   -3.9110 O.3     1  UNL1       -0.3112
      5 C          21.5036   72.9144   -4.4835 C.3     1  UNL1        0.1811
      6 O          20.7555   70.9577   -5.6604 O.3     1  UNL1       -0.3308
      7 O          21.0875   72.5679   -8.1680 O.3     1  UNL1       -0.3794
      8 O          18.3959   72.6768   -7.7437 O.3     1  UNL1       -0.3779
      9 C          20.6464   72.9879   -6.8779 C.3     1  UNL1        0.1713
     10 C          19.2354   72.5017   -6.6206 C.3     1  UNL1        0.1895
     11 C          21.4442   72.2153   -5.8347 C.3     1  UNL1        0.1764
     12 C          19.4630   71.0380   -6.2833 C.3     1  UNL1        0.2383
     13 H          20.5924   73.0480   -8.8509 H       1  UNL1        0.2105
     14 H          18.2818   73.6241   -7.9178 H       1  UNL1        0.2106
     15 O          16.8910   70.1606   -7.0535 O.2     1  UNL1       -0.2464
     16 O          15.7569   69.0909   -2.7163 O.2     1  UNL1       -0.2670
     17 N          18.4755   70.5251   -5.3760 N.ar    1  UNL1       -0.2551
     18 N          16.3285   69.6285   -4.8933 N.ar    1  UNL1       -0.2743
     19 C          17.2141   70.1121   -5.8648 C.ar    1  UNL1        0.3323
     20 C          18.7621   70.4352   -4.0182 C.ar    1  UNL1        0.0869
     21 C          17.9060   69.9730   -3.1045 C.ar    1  UNL1        0.0795
     22 C          16.5664   69.5209   -3.5322 C.ar    1  UNL1        0.2626
     23 H          15.4435   69.3354   -5.2106 H       1  UNL1        0.1734
     24 O          23.4114   72.4727   -1.4701 O.3     1  UNL1       -0.2703
     25 P          22.6794   73.6716   -0.6705 P.3     1  UNL1        0.2208
     26 O          21.4756   72.9192    0.1056 O.co2   1  UNL1       -0.4371
     27 O          22.2375   74.8122   -1.5410 O.2     1  UNL1       -0.5170
     28 O          23.7203   74.0823    0.4926 O.3     1  UNL1       -0.2858
     29 O          23.9106   73.4428    2.7667 O.3     1  UNL1       -0.3258
     30 O          21.7522   70.2189    1.3532 O.3     1  UNL1       -0.3794
     31 O          20.4599   72.1706    3.0171 O.3     1  UNL1       -0.3794
     32 O          23.8388   71.3866   -0.2784 O.3     1  UNL1       -0.3775
     33 C          22.1480   71.5913    1.4247 C.3     1  UNL1        0.1715
     34 C          21.8721   72.0967    2.8422 C.3     1  UNL1        0.1694
     35 C          23.6357   71.6996    1.0954 C.3     1  UNL1        0.1967
     36 C          22.5120   73.4721    3.0743 C.3     1  UNL1        0.1761
     37 C          24.1835   73.0932    1.4083 C.3     1  UNL1        0.2704
     38 H          20.8084   70.1432    1.5607 H       1  UNL1        0.2105
     39 H          20.0681   71.2958    2.8672 H       1  UNL1        0.2105
     40 H          23.4881   70.5020   -0.4636 H       1  UNL1        0.2106
     41 O          22.0855   72.7939    5.3253 O.3     1  UNL1       -0.3794
     42 C          22.3842   73.9245    4.5273 C.3     1  UNL1        0.1693
     43 H          22.0016   73.0667    6.2528 H       1  UNL1        0.2105
@<TRIPOS>UNITY_ATOM_ATTR
2 1
charge -1
26 1
charge -1
@<TRIPOS>BOND
     1    25    28    1
     2    25    24    1
     3    25    26    1
     4    25    27    2
     5     1     4    1
     6     1    24    1
     7     1     2    1
     8     1     3    2
     9     6    11    1
    10     6    12    1
    11    29    36    1
    12    29    37    1
    13     7     9    1
    14     7    13    1
    15     8    10    1
    16     8    14    1
    17    28    37    1
    18     4     5    1
    19    30    33    1
    20    30    38    1
    21    31    34    1
    22    31    39    1
    23    32    35    1
    24    32    40    1
    25    41    42    1
    26    41    43    1
    27    15    19    2
    28    16    22    2
    29    17    12    1
    30    17    19   ar
    31    17    20   ar
    32    18    19   ar
    33    18    22   ar
    34    18    23    1
    35     9    10    1
    36     9    11    1
    37    10    12    1
    38    11     5    1
    39    33    34    1
    40    33    35    1
    41    34    36    1
    42    35    37    1
    43    36    42    1
    44    20    21   ar
    45    21    22   ar
@<TRIPOS>MOLECULE
*****
 43 45 0 0 0
SMALL
GASTEIGER

@<TRIPOS>ATOM
      1 P          23.2537   72.1379   -3.6166 P.3     1  UNL1        0.2189
      2 O          23.8646   70.6729   -3.3037 O.co2   1  UNL1       -0.4371
      3 O          24.2159   73.1059   -4.2400 O.2     1  UNL1       -0.5170
      4 O          22.6081   72.5987   -2.2064 O.3     1  UNL1       -0.3112
      5 C          23.4481   72.6629   -1.0670 C.3     1  UNL1        0.1811
      6 O          24.4450   71.2058    0.5630 O.3     1  UNL1       -0.3308
      7 O          21.6770   70.1583    1.0446 O.3     1  UNL1       -0.3794
      8 O          22.0414   71.8617    3.1428 O.3     1  UNL1       -0.3779
      9 C          22.0987   71.4870    0.7412 C.3     1  UNL1        0.1713
     10 C          22.7550   72.1195    1.9507 C.3     1  UNL1        0.1895
     11 C          23.2603   71.3979   -0.2407 C.3     1  UNL1        0.1764
     12 C          24.1285   71.4703    1.9395 C.3     1  UNL1        0.2383
     13 H          20.9355   70.1895    1.6701 H       1  UNL1        0.2105
     14 H          21.1749   72.2956    3.1014 H       1  UNL1        0.2106
     15 O          26.8066   70.6878    2.3795 O.2     1  UNL1       -0.2464
     16 O          27.9276   74.8224    4.0794 O.2     1  UNL1       -0.2670
     17 N          25.1416   72.3223    2.4954 N.ar    1  UNL1       -0.2551
     18 N          27.3626   72.7472    3.2254 N.ar    1  UNL1       -0.2743
     19 C          26.4558   71.8317    2.6763 C.ar    1  UNL1        0.3323
     20 C          24.8279   73.6286    2.8546 C.ar    1  UNL1        0.0869
     21 C          25.7039   74.4887    3.3782 C.ar    1  UNL1        0.0795
     22 C          27.0986   74.0553    3.5996 C.ar    1  UNL1        0.2626
     23 H          28.2841   72.4275    3.3608 H       1  UNL1        0.1734
     24 O          21.9548   71.8049   -4.5193 O.3     1  UNL1       -0.2703
     25 P          20.5022   72.5105   -4.5903 P.3     1  UNL1        0.2208
     26 O          20.8557   74.0892   -4.5815 O.co2   1  UNL1       -0.4371
     27 O          19.5561   72.0817   -3.5063 O.2     1  UNL1       -0.5170
     28 O          19.9789   72.2182   -6.0889 O.3     1  UNL1       -0.2858
     29 O          19.1240   70.0106   -6.1987 O.3     1  UNL1       -0.3258
     30 O          18.8685   71.0166  -10.1954 O.3     1  UNL1       -0.3794
     31 O          16.4717   70.8294   -8.6243 O.3     1  UNL1       -0.3794
     32 O          21.1349   71.8999   -8.6261 O.3     1  UNL1       -0.3775
     33 C          18.8198   71.2551   -8.7860 C.3     1  UNL1        0.1715
     34 C          17.7404   70.3531   -8.1841 C.3     1  UNL1        0.1694
     35 C          20.1852   70.9385   -8.1787 C.3     1  UNL1        0.1967
     36 C          17.8091   70.3544   -6.6510 C.3     1  UNL1        0.1761
     37 C          20.1322   70.9171   -6.6501 C.3     1  UNL1        0.2704
     38 H          18.0047   71.2161  -10.5872 H       1  UNL1        0.2105
     39 H          16.4416   70.8240   -9.5939 H       1  UNL1        0.2105
     40 H          21.1592   71.9035   -9.5953 H       1  UNL1        0.2106
     41 O          16.1229   69.9823   -4.9996 O.3     1  UNL1       -0.3794
     42 C          16.8464   69.3420   -6.0345 C.3     1  UNL1        0.1693
     43 H          15.5059   69.3499   -4.5982 H       1  UNL1        0.2105
@<TRIPOS>UNITY_ATOM_ATTR
2 1
charge -1
26 1
charge -1
@<TRIPOS>BOND
     1    25    28    1
     2    25    24    1
     3    25    26    1
     4    25    27    2
     5     1     4    1
     6     1    24    1
     7     1     2    1
     8     1     3    2
     9     6    11    1
    10     6    12    1
    11    29    36    1
    12    29    37    1
    13     7     9    1
    14     7    13    1
    15     8    10    1
    16     8    14    1
    17    28    37    1
    18     4     5    1
    19    30    33    1
    20    30    38    1
    21    31    34    1
    22    31    39    1
    23    32    35    1
    24    32    40    1
    25    41    42    1
    26    41    43    1
    27    15    19    2
    28    16    22    2
    29    17    12    1
    30    17    19   ar
    31    17    20   ar
    32    18    19   ar
    33    18    22   ar
    34    18    23    1
    35     9    10    1
    36     9    11    1
    37    10    12    1
    38    11     5    1
    39    33    34    1
    40    33    35    1
    41    34    36    1
    42    35    37    1
    43    36    42    1
    44    20    21   ar
    45    21    22   ar
@<TRIPOS>MOLECULE
*****
 43 45 0 0 0
SMALL
GASTEIGER

@<TRIPOS>ATOM
      1 P          15.9972   69.8801   -2.4544 P.3     1  UNL1        0.2189
      2 O          15.3384   71.3558   -2.3800 O.co2   1  UNL1       -0.4371
      3 O          15.7171   69.1240   -3.7198 O.2     1  UNL1       -0.5170
      4 O          15.5081   69.1669   -1.0868 O.3     1  UNL1       -0.3112
      5 C          14.4180   69.7339   -0.3811 C.3     1  UNL1        0.1811
      6 O          13.0168   67.8347    0.0698 O.3     1  UNL1       -0.3308
      7 O          10.8574   69.3174   -1.3895 O.3     1  UNL1       -0.3794
      8 O          10.2032   69.7356    1.2246 O.3     1  UNL1       -0.3779
      9 C          11.8800   69.8245   -0.5337 C.3     1  UNL1        0.1713
     10 C          11.5619   69.5052    0.9121 C.3     1  UNL1        0.1895
     11 C          13.1408   69.0026   -0.7710 C.3     1  UNL1        0.1764
     12 C          11.9416   68.0369    1.0015 C.3     1  UNL1        0.2383
     13 H          10.0422   69.8269   -1.2561 H       1  UNL1        0.2105
     14 H          10.0112   70.6836    1.1536 H       1  UNL1        0.2106
     15 O          12.5236   65.3908    1.7998 O.2     1  UNL1       -0.2464
     16 O          13.6399   66.7289    6.0665 O.2     1  UNL1       -0.2670
     17 N          12.3866   67.6652    2.3149 N.ar    1  UNL1       -0.2551
     18 N          13.0791   66.0592    3.9236 N.ar    1  UNL1       -0.2743
     19 C          12.6505   66.3081    2.6135 C.ar    1  UNL1        0.3323
     20 C          12.5574   68.6412    3.2907 C.ar    1  UNL1        0.0869
     21 C          12.9656   68.3872    4.5358 C.ar    1  UNL1        0.0795
     22 C          13.2628   66.9948    4.9294 C.ar    1  UNL1        0.2626
     23 H          13.2686   65.1209    4.1545 H       1  UNL1        0.1734
     24 O          17.5633   70.1667   -2.1746 O.3     1  UNL1       -0.2703
     25 P          18.6513   71.0230   -3.0089 P.3     1  UNL1        0.2208
     26 O          20.0403   70.2486   -2.7112 O.co2   1  UNL1       -0.4371
     27 O          18.6731   72.4857   -2.6714 O.2     1  UNL1       -0.5170
     28 O          18.3272   70.6983   -4.5563 O.3     1  UNL1       -0.2858
     29 O          19.4599   72.1832   -6.0153 O.3     1  UNL1       -0.3258
     30 O          16.9869   70.3273   -8.7523 O.3     1  UNL1       -0.3794
     31 O          19.7963   69.7313   -8.7473 O.3     1  UNL1       -0.3794
     32 O          15.9993   70.9494   -6.1033 O.3     1  UNL1       -0.3775
     33 C          17.8156   70.4072   -7.5894 C.3     1  UNL1        0.1715
     34 C          19.2215   70.8198   -8.0297 C.3     1  UNL1        0.1694
     35 C          17.2286   71.4390   -6.6281 C.3     1  UNL1        0.1967
     36 C          20.0954   71.1848   -6.8222 C.3     1  UNL1        0.1761
     37 C          18.1977   71.7667   -5.4907 C.3     1  UNL1        0.2704
     38 H          17.3538   69.6734   -9.3666 H       1  UNL1        0.2105
     39 H          19.2346   69.5105   -9.5068 H       1  UNL1        0.2105
     40 H          15.3945   70.7460   -6.8331 H       1  UNL1        0.2106
     41 O          21.3524   72.1906   -8.5878 O.3     1  UNL1       -0.3794
     42 C          21.4495   71.7494   -7.2461 C.3     1  UNL1        0.1693
     43 H          22.2070   72.5528   -8.8711 H       1  UNL1        0.2105
@<TRIPOS>UNITY_ATOM_ATTR
2 1
charge -1
26 1
charge -1
@<TRIPOS>BOND
     1    25    28    1
     2    25    24    1
     3    25    26    1
     4    25    27    2
     5     1     4    1
     6     1    24    1
     7     1     2    1
     8     1     3    2
     9     6    11    1
    10     6    12    1
    11    29    36    1
    12    29    37    1
    13     7     9    1
    14     7    13    1
    15     8    10    1
    16     8    14    1
    17    28    37    1
    18     4     5    1
    19    30    33    1
    20    30    38    1
    21    31    34    1
    22    31    39    1
    23    32    35    1
    24    32    40    1
    25    41    42    1
    26    41    43    1
    27    15    19    2
    28    16    22    2
    29    17    12    1
    30    17    19   ar
    31    17    20   ar
    32    18    19   ar
    33    18    22   ar
    34    18    23    1
    35     9    10    1
    36     9    11    1
    37    10    12    1
    38    11     5    1
    39    33    34    1
    40    33    35    1
    41    34    36    1
    42    35    37    1
    43    36    42    1
    44    20    21   ar
    45    21    22   ar
@<TRIPOS>MOLECULE
*****
 43 45 0 0 0
SMALL
GASTEIGER

@<TRIPOS>ATOM
      1 P          22.4271   74.2795   -2.8477 P.3     1  UNL1        0.2189
      2 O          23.9821   74.0745   -3.2441 O.co2   1  UNL1       -0.4371
      3 O          21.9987   75.7078   -2.6804 O.2     1  UNL1       -0.5170
      4 O          22.2278   73.3300   -1.5529 O.3     1  UNL1       -0.3112
      5 C          23.3593   73.0286   -0.7549 C.3     1  UNL1        0.1811
      6 O          24.4359   71.2468    0.4451 O.3     1  UNL1       -0.3308
      7 O          21.6772   70.2970    1.1365 O.3     1  UNL1       -0.3794
      8 O          22.4555   71.5731    3.4174 O.3     1  UNL1       -0.3779
      9 C          22.1653   71.6310    1.0041 C.3     1  UNL1        0.1713
     10 C          23.0254   71.9969    2.1957 C.3     1  UNL1        0.1895
     11 C          23.1763   71.6498   -0.1356 C.3     1  UNL1        0.1764
     12 C          24.3263   71.2794    1.8775 C.3     1  UNL1        0.2383
     13 H          21.0295   70.2601    1.8584 H       1  UNL1        0.2105
     14 H          21.6306   72.0583    3.5750 H       1  UNL1        0.2106
     15 O          24.3571   73.9965    2.6485 O.2     1  UNL1       -0.2464
     16 O          28.7768   73.7707    3.9356 O.2     1  UNL1       -0.2670
     17 N          25.4714   71.9564    2.4176 N.ar    1  UNL1       -0.2551
     18 N          26.5577   73.8818    3.2889 N.ar    1  UNL1       -0.2743
     19 C          25.3820   73.3227    2.7721 C.ar    1  UNL1        0.3323
     20 C          26.6663   71.2664    2.5911 C.ar    1  UNL1        0.0869
     21 C          27.7789   71.8145    3.0841 C.ar    1  UNL1        0.0795
     22 C          27.7700   73.2378    3.4792 C.ar    1  UNL1        0.2626
     23 H          26.5191   74.8326    3.5425 H       1  UNL1        0.1734
     24 O          21.6460   73.4749   -4.0119 O.3     1  UNL1       -0.2703
     25 P          22.0645   72.1646   -4.8609 P.3     1  UNL1        0.2208
     26 O          22.5503   71.1238   -3.7215 O.co2   1  UNL1       -0.4371
     27 O          23.0805   72.4257   -5.9348 O.2     1  UNL1       -0.5170
     28 O          20.6665   71.5605   -5.3954 O.3     1  UNL1       -0.2858
     29 O          19.5859   71.8582   -7.4836 O.3     1  UNL1       -0.3258
     30 O          16.2635   71.7170   -5.0356 O.3     1  UNL1       -0.3794
     31 O          16.8537   69.4934   -6.7546 O.3     1  UNL1       -0.3794
     32 O          18.6611   73.0690   -4.1393 O.3     1  UNL1       -0.3775
     33 C          17.5835   71.3689   -5.4620 C.3     1  UNL1        0.1715
     34 C          17.4905   70.7634   -6.8640 C.3     1  UNL1        0.1694
     35 C          18.4515   72.6258   -5.4757 C.3     1  UNL1        0.1967
     36 C          18.8810   70.6113   -7.4951 C.3     1  UNL1        0.1761
     37 C          19.7926   72.3786   -6.1689 C.3     1  UNL1        0.2704
     38 H          15.7074   70.9233   -5.0242 H       1  UNL1        0.2105
     39 H          15.9769   69.6034   -6.3542 H       1  UNL1        0.2105
     40 H          17.8048   73.2223   -3.7114 H       1  UNL1        0.2106
     41 O          17.4803   70.3643   -9.4150 O.3     1  UNL1       -0.3794
     42 C          18.8017   70.1572   -8.9510 C.3     1  UNL1        0.1693
     43 H          17.4150   70.0800  -10.3405 H       1  UNL1        0.2105
@<TRIPOS>UNITY_ATOM_ATTR
2 1
charge -1
26 1
charge -1
@<TRIPOS>BOND
     1    25    28    1
     2    25    24    1
     3    25    26    1
     4    25    27    2
     5     1     4    1
     6     1    24    1
     7     1     2    1
     8     1     3    2
     9     6    11    1
    10     6    12    1
    11    29    36    1
    12    29    37    1
    13     7     9    1
    14     7    13    1
    15     8    10    1
    16     8    14    1
    17    28    37    1
    18     4     5    1
    19    30    33    1
    20    30    38    1
    21    31    34    1
    22    31    39    1
    23    32    35    1
    24    32    40    1
    25    41    42    1
    26    41    43    1
    27    15    19    2
    28    16    22    2
    29    17    12    1
    30    17    19   ar
    31    17    20   ar
    32    18    19   ar
    33    18    22   ar
    34    18    23    1
    35     9    10    1
    36     9    11    1
    37    10    12    1
    38    11     5    1
    39    33    34    1
    40    33    35    1
    41    34    36    1
    42    35    37    1
    43    36    42    1
    44    20    21   ar
    45    21    22   ar
@<TRIPOS>MOLECULE
*****
 43 45 0 0 0
SMALL
GASTEIGER

@<TRIPOS>ATOM
      1 P          23.2263   71.6592   -2.9771 P.3     1  UNL1        0.2189
      2 O          23.4945   73.1466   -2.3997 O.co2   1  UNL1       -0.4371
      3 O          24.4412   70.7824   -3.0584 O.2     1  UNL1       -0.5170
      4 O          22.4522   71.9186   -4.3740 O.3     1  UNL1       -0.3112
      5 C          21.8253   73.1731   -4.5768 C.3     1  UNL1        0.1811
      6 O          20.8917   72.2415   -6.5854 O.3     1  UNL1       -0.3308
      7 O          21.0446   75.0133   -7.7189 O.3     1  UNL1       -0.3794
      8 O          18.4124   74.7927   -7.0410 O.3     1  UNL1       -0.3779
      9 C          20.7461   74.5985   -6.3870 C.3     1  UNL1        0.1713
     10 C          19.3482   74.0199   -6.3173 C.3     1  UNL1        0.1895
     11 C          21.6093   73.3839   -6.0692 C.3     1  UNL1        0.1764
     12 C          19.5496   72.6369   -6.9130 C.3     1  UNL1        0.2383
     13 H          20.5055   75.7881   -7.9446 H       1  UNL1        0.2105
     14 H          18.3194   75.6630   -6.6229 H       1  UNL1        0.2106
     15 O          18.3483   72.8228   -4.3635 O.2     1  UNL1       -0.2464
     16 O          16.0549   68.8689   -4.9537 O.2     1  UNL1       -0.2670
     17 N          18.6343   71.6703   -6.3752 N.ar    1  UNL1       -0.2551
     18 N          17.2072   70.8540   -4.6595 N.ar    1  UNL1       -0.2743
     19 C          18.0881   71.8569   -5.0839 C.ar    1  UNL1        0.3323
     20 C          18.2867   70.5525   -7.1258 C.ar    1  UNL1        0.0869
     21 C          17.4462   69.6045   -6.7061 C.ar    1  UNL1        0.0795
     22 C          16.8315   69.7239   -5.3683 C.ar    1  UNL1        0.2626
     23 H          16.8147   70.9627   -3.7629 H       1  UNL1        0.1734
     24 O          22.0564   71.1001   -2.0118 O.3     1  UNL1       -0.2703
     25 P          20.9883   71.8761   -1.0791 P.3     1  UNL1        0.2208
     26 O          20.0287   70.6875   -0.5462 O.co2   1  UNL1       -0.4371
     27 O          20.2636   72.9934   -1.7722 O.2     1  UNL1       -0.5170
     28 O          21.8335   72.3305    0.2186 O.3     1  UNL1       -0.2858
     29 O          23.1059   70.8986    1.6140 O.3     1  UNL1       -0.3258
     30 O          22.0444   73.7590    4.3966 O.3     1  UNL1       -0.3794
     31 O          24.7522   73.6406    3.4470 O.3     1  UNL1       -0.3794
     32 O          20.1429   72.9350    2.3754 O.3     1  UNL1       -0.3775
     33 C          22.4139   73.2734    3.1031 C.3     1  UNL1        0.1715
     34 C          23.7907   72.6154    3.2132 C.3     1  UNL1        0.1694
     35 C          21.3705   72.2617    2.6329 C.3     1  UNL1        0.1967
     36 C          24.1374   71.8390    1.9356 C.3     1  UNL1        0.1761
     37 C          21.8350   71.5102    1.3841 C.3     1  UNL1        0.2704
     38 H          22.7026   74.4022    4.7007 H       1  UNL1        0.2105
     39 H          24.5215   74.1235    4.2562 H       1  UNL1        0.2105
     40 H          19.8593   73.4066    3.1736 H       1  UNL1        0.2106
     41 O          25.1533   69.8529    2.7913 O.3     1  UNL1       -0.3794
     42 C          25.4341   71.0458    2.0825 C.3     1  UNL1        0.1693
     43 H          25.9695   69.3377    2.8920 H       1  UNL1        0.2105
@<TRIPOS>UNITY_ATOM_ATTR
2 1
charge -1
26 1
charge -1
@<TRIPOS>BOND
     1    25    28    1
     2    25    24    1
     3    25    26    1
     4    25    27    2
     5     1     4    1
     6     1    24    1
     7     1     2    1
     8     1     3    2
     9     6    11    1
    10     6    12    1
    11    29    36    1
    12    29    37    1
    13     7     9    1
    14     7    13    1
    15     8    10    1
    16     8    14    1
    17    28    37    1
    18     4     5    1
    19    30    33    1
    20    30    38    1
    21    31    34    1
    22    31    39    1
    23    32    35    1
    24    32    40    1
    25    41    42    1
    26    41    43    1
    27    15    19    2
    28    16    22    2
    29    17    12    1
    30    17    19   ar
    31    17    20   ar
    32    18    19   ar
    33    18    22   ar
    34    18    23    1
    35     9    10    1
    36     9    11    1
    37    10    12    1
    38    11     5    1
    39    33    34    1
    40    33    35    1
    41    34    36    1
    42    35    37    1
    43    36    42    1
    44    20    21   ar
    45    21    22   ar
@<TRIPOS>MOLECULE
*****
 43 45 0 0 0
SMALL
GASTEIGER

@<TRIPOS>ATOM
      1 P          21.8627   72.5049   -5.6228 P.3     1  UNL1        0.2189
      2 O          21.2217   73.9547   -5.2994 O.co2   1  UNL1       -0.4371
      3 O          23.1045   72.5344   -6.4643 O.2     1  UNL1       -0.5170
      4 O          20.6236   71.6587   -6.2282 O.3     1  UNL1       -0.3112
      5 C          20.1142   72.0216   -7.4997 C.3     1  UNL1        0.1811
      6 O          18.9162   69.9781   -7.0963 O.3     1  UNL1       -0.3308
      7 O          18.1551   70.0712   -9.9950 O.3     1  UNL1       -0.3794
      8 O          15.9066   70.9964   -8.7601 O.3     1  UNL1       -0.3779
      9 C          18.3137   71.1448   -9.0690 C.3     1  UNL1        0.1713
     10 C          17.1451   71.1860   -8.1066 C.3     1  UNL1        0.1895
     11 C          19.4748   70.7996   -8.1448 C.3     1  UNL1        0.1764
     12 C          17.4823   70.0526   -7.1527 C.3     1  UNL1        0.2383
     13 H          17.4193   70.2691  -10.5962 H       1  UNL1        0.2105
     14 H          15.7373   71.7432   -9.3554 H       1  UNL1        0.2106
     15 O          16.2788   68.0700   -5.5406 O.2     1  UNL1       -0.2464
     16 O          15.5704   71.0443   -2.0921 O.2     1  UNL1       -0.2670
     17 N          16.9748   70.2812   -5.8293 N.ar    1  UNL1       -0.2551
     18 N          15.9272   69.5525   -3.8248 N.ar    1  UNL1       -0.2743
     19 C          16.3880   69.2178   -5.1045 C.ar    1  UNL1        0.3323
     20 C          17.0618   71.5483   -5.2630 C.ar    1  UNL1        0.0869
     21 C          16.6164   71.8514   -4.0419 C.ar    1  UNL1        0.0795
     22 C          15.9898   70.7972   -3.2185 C.ar    1  UNL1        0.2626
     23 H          15.5143   68.8277   -3.3014 H       1  UNL1        0.1734
     24 O          22.0604   71.8592   -4.1541 O.3     1  UNL1       -0.2703
     25 P          23.2765   71.9806   -3.0961 P.3     1  UNL1        0.2208
     26 O          23.9315   73.4177   -3.4470 O.co2   1  UNL1       -0.4371
     27 O          24.2436   70.8329   -3.1358 O.2     1  UNL1       -0.5170
     28 O          22.5557   72.1988   -1.6686 O.3     1  UNL1       -0.2858
     29 O          23.4624   70.7034   -0.0690 O.3     1  UNL1       -0.3258
     30 O          20.3780   72.2820    2.1773 O.3     1  UNL1       -0.3794
     31 O          23.0880   73.0264    2.7687 O.3     1  UNL1       -0.3794
     32 O          19.9846   71.7449   -0.6399 O.3     1  UNL1       -0.3775
     33 C          21.4271   72.3062    1.2055 C.3     1  UNL1        0.1715
     34 C          22.7386   71.9470    1.9067 C.3     1  UNL1        0.1694
     35 C          21.1114   71.2952    0.1048 C.3     1  UNL1        0.1967
     36 C          23.8588   71.6915    0.8893 C.3     1  UNL1        0.1761
     37 C          22.3080   71.0784   -0.8231 C.3     1  UNL1        0.2704
     38 H          20.5721   72.9221    2.8788 H       1  UNL1        0.2105
     39 H          22.3722   73.1776    3.4059 H       1  UNL1        0.2105
     40 H          19.2337   71.8781   -0.0412 H       1  UNL1        0.2106
     41 O          24.8065   70.0393    2.3318 O.3     1  UNL1       -0.3794
     42 C          25.1325   71.1789    1.5577 C.3     1  UNL1        0.1693
     43 H          25.6077   69.7019    2.7629 H       1  UNL1        0.2105
@<TRIPOS>UNITY_ATOM_ATTR
2 1
charge -1
26 1
charge -1
@<TRIPOS>BOND
     1    25    28    1
     2    25    24    1
     3    25    26    1
     4    25    27    2
     5     1     4    1
     6     1    24    1
     7     1     2    1
     8     1     3    2
     9     6    11    1
    10     6    12    1
    11    29    36    1
    12    29    37    1
    13     7     9    1
    14     7    13    1
    15     8    10    1
    16     8    14    1
    17    28    37    1
    18     4     5    1
    19    30    33    1
    20    30    38    1
    21    31    34    1
    22    31    39    1
    23    32    35    1
    24    32    40    1
    25    41    42    1
    26    41    43    1
    27    15    19    2
    28    16    22    2
    29    17    12    1
    30    17    19   ar
    31    17    20   ar
    32    18    19   ar
    33    18    22   ar
    34    18    23    1
    35     9    10    1
    36     9    11    1
    37    10    12    1
    38    11     5    1
    39    33    34    1
    40    33    35    1
    41    34    36    1
    42    35    37    1
    43    36    42    1
    44    20    21   ar
    45    21    22   ar
