@<TRIPOS>MOLECULE
*****
 43 45 0 0 0
SMALL
GASTEIGER

@<TRIPOS>ATOM
      1 P          22.8394   72.1110   -2.5699 P.3     1  UNL1        0.2189
      2 O          23.3072   73.3800   -1.6821 O.co2   1  UNL1       -0.4371
      3 O          23.5271   71.9777   -3.8968 O.2     1  UNL1       -0.5170
      4 O          21.2281   72.2477   -2.6242 O.3     1  UNL1       -0.3112
      5 C          20.5078   71.4089   -3.5104 C.3     1  UNL1        0.1811
      6 O          18.5709   72.2085   -4.6863 O.3     1  UNL1       -0.3308
      7 O          16.9547   70.9714   -2.4845 O.3     1  UNL1       -0.3794
      8 O          16.7387   69.1319   -4.4861 O.3     1  UNL1       -0.3779
      9 C          18.1658   70.5118   -3.0823 C.3     1  UNL1        0.1713
     10 C          17.8910   69.9494   -4.4614 C.3     1  UNL1        0.1895
     11 C          19.0236   71.7301   -3.4008 C.3     1  UNL1        0.1764
     12 C          17.7298   71.2123   -5.2904 C.3     1  UNL1        0.2383
     13 H          16.3904   70.2109   -2.2718 H       1  UNL1        0.2105
     14 H          16.8909   68.3418   -3.9445 H       1  UNL1        0.2106
     15 O          16.0248   70.2988   -7.3486 O.2     1  UNL1       -0.2464
     16 O          19.3884   70.5361  -10.4905 O.2     1  UNL1       -0.2670
     17 N          18.1337   71.0265   -6.6556 N.ar    1  UNL1       -0.2551
     18 N          17.7010   70.4179   -8.9114 N.ar    1  UNL1       -0.2743
     19 C          17.2000   70.5625   -7.6113 C.ar    1  UNL1        0.3323
     20 C          19.4425   71.3039   -7.0349 C.ar    1  UNL1        0.0869
     21 C          19.9047   71.1596   -8.2786 C.ar    1  UNL1        0.0795
     22 C          18.9936   70.6793   -9.3374 C.ar    1  UNL1        0.2626
     23 H          17.0686   70.0955   -9.5940 H       1  UNL1        0.1734
     24 O          23.0645   70.8632   -1.5672 O.3     1  UNL1       -0.2703
     25 P          22.3138   70.4552   -0.1950 P.3     1  UNL1        0.2208
     26 O          23.3792   69.4809    0.5352 O.co2   1  UNL1       -0.4371
     27 O          20.9550   69.8487   -0.3938 O.2     1  UNL1       -0.5170
     28 O          22.3211   71.8042    0.6912 O.3     1  UNL1       -0.2858
     29 O          21.2523   72.0018    2.7972 O.3     1  UNL1       -0.3258
     30 O          21.1261   75.9575    1.6195 O.3     1  UNL1       -0.3794
     31 O          22.9354   75.1546    3.7004 O.3     1  UNL1       -0.3794
     32 O          20.7014   73.8573   -0.3268 O.3     1  UNL1       -0.3775
     33 C          21.6879   74.6464    1.7240 C.3     1  UNL1        0.1715
     34 C          21.8862   74.3264    3.2069 C.3     1  UNL1        0.1694
     35 C          20.7340   73.6420    1.0800 C.3     1  UNL1        0.1967
     36 C          22.2326   72.8456    3.4125 C.3     1  UNL1        0.1761
     37 C          21.1415   72.1997    1.3864 C.3     1  UNL1        0.2704
     38 H          21.7271   76.6002    2.0261 H       1  UNL1        0.2105
     39 H          22.7043   76.0869    3.5641 H       1  UNL1        0.2105
     40 H          20.4419   74.7737   -0.5076 H       1  UNL1        0.2106
     41 O          21.2779   73.2010    5.5738 O.3     1  UNL1       -0.3794
     42 C          22.2798   72.4694    4.8918 C.3     1  UNL1        0.1693
     43 H          21.2959   72.9715    6.5165 H       1  UNL1        0.2105
@<TRIPOS>UNITY_ATOM_ATTR
2 1
charge -1
26 1
charge -1
@<TRIPOS>BOND
     1    25    28    1
     2    25    24    1
     3    25    26    1
     4    25    27    2
     5     1     4    1
     6     1    24    1
     7     1     2    1
     8     1     3    2
     9     6    11    1
    10     6    12    1
    11    29    36    1
    12    29    37    1
    13     7     9    1
    14     7    13    1
    15     8    10    1
    16     8    14    1
    17    28    37    1
    18     4     5    1
    19    30    33    1
    20    30    38    1
    21    31    34    1
    22    31    39    1
    23    32    35    1
    24    32    40    1
    25    41    42    1
    26    41    43    1
    27    15    19    2
    28    16    22    2
    29    17    12    1
    30    17    19   ar
    31    17    20   ar
    32    18    19   ar
    33    18    22   ar
    34    18    23    1
    35     9    10    1
    36     9    11    1
    37    10    12    1
    38    11     5    1
    39    33    34    1
    40    33    35    1
    41    34    36    1
    42    35    37    1
    43    36    42    1
    44    20    21   ar
    45    21    22   ar
@<TRIPOS>MOLECULE
*****
 43 45 0 0 0
SMALL
GASTEIGER

@<TRIPOS>ATOM
      1 P          21.3799   73.7543   -5.5144 P.3     1  UNL1        0.2189
      2 O          20.2137   74.2494   -4.5083 O.co2   1  UNL1       -0.4371
      3 O          22.4386   74.7760   -5.8091 O.2     1  UNL1       -0.5170
      4 O          20.5721   73.1894   -6.7974 O.3     1  UNL1       -0.3112
      5 C          21.3130   72.6736   -7.8895 C.3     1  UNL1        0.1811
      6 O          19.9488   70.7183   -8.1884 O.3     1  UNL1       -0.3308
      7 O          18.5577   72.2498  -10.3587 O.3     1  UNL1       -0.3794
      8 O          16.8229   72.4749   -8.2666 O.3     1  UNL1       -0.3779
      9 C          19.0865   72.7195   -9.1197 C.3     1  UNL1        0.1713
     10 C          18.1933   72.2957   -7.9724 C.3     1  UNL1        0.1895
     11 C          20.3652   71.9431   -8.8309 C.3     1  UNL1        0.1764
     12 C          18.5689   70.8333   -7.8042 C.3     1  UNL1        0.2383
     13 H          17.7405   72.7313  -10.5646 H       1  UNL1        0.2105
     14 H          16.6340   73.4212   -8.3643 H       1  UNL1        0.2106
     15 O          16.1461   69.9148   -6.6798 O.2     1  UNL1       -0.2464
     16 O          18.1274   69.1308   -2.5931 O.2     1  UNL1       -0.2670
     17 N          18.4231   70.3827   -6.4488 N.ar    1  UNL1       -0.2551
     18 N          17.1347   69.5250   -4.6459 N.ar    1  UNL1       -0.2743
     19 C          17.1625   69.9424   -5.9827 C.ar    1  UNL1        0.3323
     20 C          19.5227   70.3802   -5.5974 C.ar    1  UNL1        0.0869
     21 C          19.4792   69.9802   -4.3248 C.ar    1  UNL1        0.0795
     22 C          18.1999   69.5050   -3.7595 C.ar    1  UNL1        0.2626
     23 H          16.2669   69.2143   -4.2991 H       1  UNL1        0.1734
     24 O          21.9238   72.4072   -4.8055 O.3     1  UNL1       -0.2703
     25 P          22.9155   72.1963   -3.5465 P.3     1  UNL1        0.2208
     26 O          24.1519   73.1856   -3.8783 O.co2   1  UNL1       -0.4371
     27 O          23.3120   70.7681   -3.3080 O.2     1  UNL1       -0.5170
     28 O          22.1555   72.8955   -2.3062 O.3     1  UNL1       -0.2858
     29 O          21.5227   71.1677   -0.8125 O.3     1  UNL1       -0.3258
     30 O          19.8458   74.3877    1.1549 O.3     1  UNL1       -0.3794
     31 O          22.1942   73.1339    2.2325 O.3     1  UNL1       -0.3794
     32 O          19.7731   74.2646   -1.7363 O.3     1  UNL1       -0.3775
     33 C          20.8237   73.7121    0.3594 C.3     1  UNL1        0.1715
     34 C          21.4079   72.5665    1.1884 C.3     1  UNL1        0.1694
     35 C          20.1545   73.1745   -0.9041 C.3     1  UNL1        0.1967
     36 C          22.2646   71.6352    0.3201 C.3     1  UNL1        0.1761
     37 C          21.0743   72.2206   -1.6683 C.3     1  UNL1        0.2704
     38 H          20.2643   74.7319    1.9585 H       1  UNL1        0.2105
     39 H          21.6416   73.7202    2.7730 H       1  UNL1        0.2105
     40 H          19.1907   74.8610   -1.2412 H       1  UNL1        0.2106
     41 O          22.0171   69.2760    0.6062 O.3     1  UNL1       -0.3794
     42 C          22.7278   70.4007    1.0904 C.3     1  UNL1        0.1693
     43 H          22.3018   68.4827    1.0872 H       1  UNL1        0.2105
@<TRIPOS>UNITY_ATOM_ATTR
2 1
charge -1
26 1
charge -1
@<TRIPOS>BOND
     1    25    28    1
     2    25    24    1
     3    25    26    1
     4    25    27    2
     5     1     4    1
     6     1    24    1
     7     1     2    1
     8     1     3    2
     9     6    11    1
    10     6    12    1
    11    29    36    1
    12    29    37    1
    13     7     9    1
    14     7    13    1
    15     8    10    1
    16     8    14    1
    17    28    37    1
    18     4     5    1
    19    30    33    1
    20    30    38    1
    21    31    34    1
    22    31    39    1
    23    32    35    1
    24    32    40    1
    25    41    42    1
    26    41    43    1
    27    15    19    2
    28    16    22    2
    29    17    12    1
    30    17    19   ar
    31    17    20   ar
    32    18    19   ar
    33    18    22   ar
    34    18    23    1
    35     9    10    1
    36     9    11    1
    37    10    12    1
    38    11     5    1
    39    33    34    1
    40    33    35    1
    41    34    36    1
    42    35    37    1
    43    36    42    1
    44    20    21   ar
    45    21    22   ar
@<TRIPOS>MOLECULE
*****
 43 45 0 0 0
SMALL
GASTEIGER

@<TRIPOS>ATOM
      1 P          22.8708   71.8650   -3.0721 P.3     1  UNL1        0.2189
      2 O          23.8171   72.7788   -4.0139 O.co2   1  UNL1       -0.4371
      3 O          23.5564   70.6952   -2.4295 O.2     1  UNL1       -0.5170
      4 O          21.6097   71.5063   -4.0202 O.3     1  UNL1       -0.3112
      5 C          20.7262   70.4775   -3.6095 C.3     1  UNL1        0.1811
      6 O          18.9556   71.7279   -4.6464 O.3     1  UNL1       -0.3308
      7 O          17.1780   70.6405   -2.4904 O.3     1  UNL1       -0.3794
      8 O          16.5685   69.0513   -4.6211 O.3     1  UNL1       -0.3779
      9 C          18.2646   70.0105   -3.1669 C.3     1  UNL1        0.1713
     10 C          17.8573   69.6290   -4.5748 C.3     1  UNL1        0.1895
     11 C          19.3345   71.0653   -3.4201 C.3     1  UNL1        0.1764
     12 C          17.9254   70.9648   -5.2954 C.3     1  UNL1        0.2383
     13 H          16.4821   69.9864   -2.3175 H       1  UNL1        0.2105
     14 H          16.5768   68.2039   -4.1493 H       1  UNL1        0.2106
     15 O          16.0420   70.4752   -7.3427 O.2     1  UNL1       -0.2464
     16 O          19.3112   70.4304  -10.5910 O.2     1  UNL1       -0.2670
     17 N          18.2567   70.8212   -6.6850 N.ar    1  UNL1       -0.2551
     18 N          17.6713   70.4535   -8.9584 N.ar    1  UNL1       -0.2743
     19 C          17.2359   70.5761   -7.6328 C.ar    1  UNL1        0.3323
     20 C          19.5813   70.9238   -7.0958 C.ar    1  UNL1        0.0869
     21 C          19.9802   70.8032   -8.3637 C.ar    1  UNL1        0.0795
     22 C          18.9761   70.5463   -9.4162 C.ar    1  UNL1        0.2626
     23 H          16.9777   70.2821   -9.6361 H       1  UNL1        0.1734
     24 O          22.2506   72.9357   -2.0321 O.3     1  UNL1       -0.2703
     25 P          21.4684   72.7262   -0.6330 P.3     1  UNL1        0.2208
     26 O          21.5466   71.1271   -0.4001 O.co2   1  UNL1       -0.4371
     27 O          20.0759   73.2871   -0.6165 O.2     1  UNL1       -0.5170
     28 O          22.4538   73.3494    0.4831 O.3     1  UNL1       -0.2858
     29 O          21.4601   74.3379    2.3942 O.3     1  UNL1       -0.3258
     30 O          25.2218   76.0199    2.6618 O.3     1  UNL1       -0.3794
     31 O          24.4498   73.9699    4.5190 O.3     1  UNL1       -0.3794
     32 O          23.9776   75.6696    0.0716 O.3     1  UNL1       -0.3775
     33 C          24.2719   74.9930    2.3644 C.3     1  UNL1        0.1715
     34 C          23.5325   74.6352    3.6552 C.3     1  UNL1        0.1694
     35 C          23.2940   75.5077    1.3097 C.3     1  UNL1        0.1967
     36 C          22.3209   73.7378    3.3692 C.3     1  UNL1        0.1761
     37 C          22.1013   74.5654    1.1376 C.3     1  UNL1        0.2704
     38 H          25.8459   75.6993    3.3305 H       1  UNL1        0.2105
     39 H          25.2103   74.5470    4.6913 H       1  UNL1        0.2105
     40 H          24.7302   76.2684    0.1938 H       1  UNL1        0.2106
     41 O          22.0638   72.4420    5.3601 O.3     1  UNL1       -0.3794
     42 C          21.4788   73.4979    4.6203 C.3     1  UNL1        0.1693
     43 H          21.5386   72.2784    6.1595 H       1  UNL1        0.2105
@<TRIPOS>UNITY_ATOM_ATTR
2 1
charge -1
26 1
charge -1
@<TRIPOS>BOND
     1    25    28    1
     2    25    24    1
     3    25    26    1
     4    25    27    2
     5     1     4    1
     6     1    24    1
     7     1     2    1
     8     1     3    2
     9     6    11    1
    10     6    12    1
    11    29    36    1
    12    29    37    1
    13     7     9    1
    14     7    13    1
    15     8    10    1
    16     8    14    1
    17    28    37    1
    18     4     5    1
    19    30    33    1
    20    30    38    1
    21    31    34    1
    22    31    39    1
    23    32    35    1
    24    32    40    1
    25    41    42    1
    26    41    43    1
    27    15    19    2
    28    16    22    2
    29    17    12    1
    30    17    19   ar
    31    17    20   ar
    32    18    19   ar
    33    18    22   ar
    34    18    23    1
    35     9    10    1
    36     9    11    1
    37    10    12    1
    38    11     5    1
    39    33    34    1
    40    33    35    1
    41    34    36    1
    42    35    37    1
    43    36    42    1
    44    20    21   ar
    45    21    22   ar
@<TRIPOS>MOLECULE
*****
 43 45 0 0 0
SMALL
GASTEIGER

@<TRIPOS>ATOM
      1 P          22.8251   71.5199   -2.1647 P.3     1  UNL1        0.2189
      2 O          23.1095   73.1116   -2.2209 O.co2   1  UNL1       -0.4371
      3 O          23.5409   70.7111   -3.2063 O.2     1  UNL1       -0.5170
      4 O          21.2107   71.4131   -2.1790 O.3     1  UNL1       -0.3112
      5 C          20.5619   71.1422   -3.4093 C.3     1  UNL1        0.1811
      6 O          18.6992   72.1127   -4.5765 O.3     1  UNL1       -0.3308
      7 O          16.9752   70.9214   -2.4318 O.3     1  UNL1       -0.3794
      8 O          16.6552   69.1668   -4.4947 O.3     1  UNL1       -0.3779
      9 C          18.1583   70.3978   -3.0330 C.3     1  UNL1        0.1713
     10 C          17.8612   69.9005   -4.4323 C.3     1  UNL1        0.1895
     11 C          19.1024   71.5627   -3.3032 C.3     1  UNL1        0.1764
     12 C          17.7980   71.1975   -5.2208 C.3     1  UNL1        0.2383
     13 H          16.3569   70.1958   -2.2496 H       1  UNL1        0.2105
     14 H          16.7457   68.3510   -3.9780 H       1  UNL1        0.2106
     15 O          16.0780   70.3792   -7.3064 O.2     1  UNL1       -0.2464
     16 O          19.4652   70.5793  -10.4254 O.2     1  UNL1       -0.2670
     17 N          18.2038   71.0280   -6.5875 N.ar    1  UNL1       -0.2551
     18 N          17.7659   70.4797   -8.8578 N.ar    1  UNL1       -0.2743
     19 C          17.2621   70.6124   -7.5575 C.ar    1  UNL1        0.3323
     20 C          19.5226   71.2733   -6.9543 C.ar    1  UNL1        0.0869
     21 C          19.9874   71.1408   -8.1984 C.ar    1  UNL1        0.0795
     22 C          19.0682   70.7104   -9.2717 C.ar    1  UNL1        0.2626
     23 H          17.1280   70.1908   -9.5502 H       1  UNL1        0.1734
     24 O          23.2011   71.1371   -0.6399 O.3     1  UNL1       -0.2703
     25 P          22.3667   70.3376    0.4904 P.3     1  UNL1        0.2208
     26 O          23.5018   69.9245    1.5667 O.co2   1  UNL1       -0.4371
     27 O          21.5648   69.1835   -0.0377 O.2     1  UNL1       -0.5170
     28 O          21.4942   71.4737    1.2341 O.3     1  UNL1       -0.2858
     29 O          21.8397   73.8150    1.1096 O.3     1  UNL1       -0.3258
     30 O          20.2772   73.5805    4.9247 O.3     1  UNL1       -0.3794
     31 O          18.6829   74.6811    2.8046 O.3     1  UNL1       -0.3794
     32 O          22.0862   71.5291    3.9766 O.3     1  UNL1       -0.3775
     33 C          20.4183   73.2134    3.5496 C.3     1  UNL1        0.1715
     34 C          20.0815   74.4338    2.6905 C.3     1  UNL1        0.1694
     35 C          21.8551   72.7595    3.2990 C.3     1  UNL1        0.1967
     36 C          20.4650   74.2010    1.2229 C.3     1  UNL1        0.1761
     37 C          22.1463   72.6050    1.8052 C.3     1  UNL1        0.2704
     38 H          19.3669   73.8692    5.0906 H       1  UNL1        0.2105
     39 H          18.4538   74.8260    3.7361 H       1  UNL1        0.2105
     40 H          21.8988   71.6402    4.9212 H       1  UNL1        0.2106
     41 O          20.9402   76.5343    1.0259 O.3     1  UNL1       -0.3794
     42 C          20.2841   75.4601    0.3779 C.3     1  UNL1        0.1693
     43 H          20.8337   77.3424    0.4992 H       1  UNL1        0.2105
@<TRIPOS>UNITY_ATOM_ATTR
2 1
charge -1
26 1
charge -1
@<TRIPOS>BOND
     1    25    28    1
     2    25    24    1
     3    25    26    1
     4    25    27    2
     5     1     4    1
     6     1    24    1
     7     1     2    1
     8     1     3    2
     9     6    11    1
    10     6    12    1
    11    29    36    1
    12    29    37    1
    13     7     9    1
    14     7    13    1
    15     8    10    1
    16     8    14    1
    17    28    37    1
    18     4     5    1
    19    30    33    1
    20    30    38    1
    21    31    34    1
    22    31    39    1
    23    32    35    1
    24    32    40    1
    25    41    42    1
    26    41    43    1
    27    15    19    2
    28    16    22    2
    29    17    12    1
    30    17    19   ar
    31    17    20   ar
    32    18    19   ar
    33    18    22   ar
    34    18    23    1
    35     9    10    1
    36     9    11    1
    37    10    12    1
    38    11     5    1
    39    33    34    1
    40    33    35    1
    41    34    36    1
    42    35    37    1
    43    36    42    1
    44    20    21   ar
    45    21    22   ar
@<TRIPOS>MOLECULE
*****
 43 45 0 0 0
SMALL
GASTEIGER

@<TRIPOS>ATOM
      1 P          22.9234   72.0256   -3.0876 P.3     1  UNL1        0.2189
      2 O          23.6798   70.5963   -3.1373 O.co2   1  UNL1       -0.4371
      3 O          22.6979   72.5757   -1.7099 O.2     1  UNL1       -0.5170
      4 O          21.5925   71.7919   -3.9775 O.3     1  UNL1       -0.3112
      5 C          20.7267   70.7249   -3.6316 C.3     1  UNL1        0.1811
      6 O          18.9130   71.8767   -4.7077 O.3     1  UNL1       -0.3308
      7 O          17.1738   70.7952   -2.5175 O.3     1  UNL1       -0.3794
      8 O          16.6243   69.1177   -4.5961 O.3     1  UNL1       -0.3779
      9 C          18.2832   70.1837   -3.1738 C.3     1  UNL1        0.1713
     10 C          17.8912   69.7428   -4.5686 C.3     1  UNL1        0.1895
     11 C          19.3145   71.2678   -3.4609 C.3     1  UNL1        0.1764
     12 C          17.9117   71.0564   -5.3316 C.3     1  UNL1        0.2383
     13 H          16.5019   70.1223   -2.3236 H       1  UNL1        0.2105
     14 H          16.6627   68.2866   -4.0974 H       1  UNL1        0.2106
     15 O          16.0366   70.5277   -7.3767 O.2     1  UNL1       -0.2464
     16 O          19.3215   70.3983  -10.6069 O.2     1  UNL1       -0.2670
     17 N          18.2493   70.8804   -6.7160 N.ar    1  UNL1       -0.2551
     18 N          17.6737   70.4639   -8.9835 N.ar    1  UNL1       -0.2743
     19 C          17.2322   70.6177   -7.6631 C.ar    1  UNL1        0.3323
     20 C          19.5763   70.9692   -7.1223 C.ar    1  UNL1        0.0869
     21 C          19.9809   70.8187   -8.3852 C.ar    1  UNL1        0.0795
     22 C          18.9811   70.5418   -9.4367 C.ar    1  UNL1        0.2626
     23 H          16.9828   70.2798   -9.6606 H       1  UNL1        0.1734
     24 O          23.8396   72.9550   -4.0414 O.3     1  UNL1       -0.2703
     25 P          24.3419   74.4819   -3.8702 P.3     1  UNL1        0.2208
     26 O          23.9551   74.8302   -2.3383 O.co2   1  UNL1       -0.4371
     27 O          23.7751   75.4335   -4.8836 O.2     1  UNL1       -0.5170
     28 O          25.9530   74.3846   -3.8717 O.3     1  UNL1       -0.2858
     29 O          26.8678   76.2280   -2.6962 O.3     1  UNL1       -0.3258
     30 O          30.3593   74.5823   -4.1632 O.3     1  UNL1       -0.3794
     31 O          29.7457   74.3463   -1.3675 O.3     1  UNL1       -0.3794
     32 O          27.9750   74.6098   -5.8045 O.3     1  UNL1       -0.3775
     33 C          29.0288   74.5616   -3.6391 C.3     1  UNL1        0.1715
     34 C          29.0479   75.2148   -2.2558 C.3     1  UNL1        0.1694
     35 C          28.1080   75.3310   -4.5844 C.3     1  UNL1        0.1967
     36 C          27.6239   75.4706   -1.7442 C.3     1  UNL1        0.1761
     37 C          26.7329   75.5742   -3.9597 C.3     1  UNL1        0.2704
     38 H          30.9490   74.0950   -3.5679 H       1  UNL1        0.2105
     39 H          30.6432   74.1925   -1.7023 H       1  UNL1        0.2105
     40 H          28.8522   74.4625   -6.1901 H       1  UNL1        0.2106
     41 O          27.9273   75.3800    0.6241 O.3     1  UNL1       -0.3794
     42 C          27.6189   76.2629   -0.4387 C.3     1  UNL1        0.1693
     43 H          27.9280   75.8706    1.4614 H       1  UNL1        0.2105
@<TRIPOS>UNITY_ATOM_ATTR
2 1
charge -1
26 1
charge -1
@<TRIPOS>BOND
     1    25    28    1
     2    25    24    1
     3    25    26    1
     4    25    27    2
     5     1     4    1
     6     1    24    1
     7     1     2    1
     8     1     3    2
     9     6    11    1
    10     6    12    1
    11    29    36    1
    12    29    37    1
    13     7     9    1
    14     7    13    1
    15     8    10    1
    16     8    14    1
    17    28    37    1
    18     4     5    1
    19    30    33    1
    20    30    38    1
    21    31    34    1
    22    31    39    1
    23    32    35    1
    24    32    40    1
    25    41    42    1
    26    41    43    1
    27    15    19    2
    28    16    22    2
    29    17    12    1
    30    17    19   ar
    31    17    20   ar
    32    18    19   ar
    33    18    22   ar
    34    18    23    1
    35     9    10    1
    36     9    11    1
    37    10    12    1
    38    11     5    1
    39    33    34    1
    40    33    35    1
    41    34    36    1
    42    35    37    1
    43    36    42    1
    44    20    21   ar
    45    21    22   ar
@<TRIPOS>MOLECULE
*****
 43 45 0 0 0
SMALL
GASTEIGER

@<TRIPOS>ATOM
      1 P          23.1106   74.0338   -3.8872 P.3     1  UNL1        0.2189
      2 O          22.8668   75.4694   -3.1822 O.co2   1  UNL1       -0.4371
      3 O          24.5495   73.6303   -4.0225 O.2     1  UNL1       -0.5170
      4 O          22.2758   74.1331   -5.2697 O.3     1  UNL1       -0.3112
      5 C          22.2588   73.0085   -6.1315 C.3     1  UNL1        0.1811
      6 O          21.3499   72.5678   -8.3118 O.3     1  UNL1       -0.3308
      7 O          21.9676   75.4333   -8.9430 O.3     1  UNL1       -0.3794
      8 O          19.2889   75.5003   -8.4367 O.3     1  UNL1       -0.3779
      9 C          21.5202   74.8556   -7.7177 C.3     1  UNL1        0.1713
     10 C          20.0540   74.4886   -7.8140 C.3     1  UNL1        0.1895
     11 C          22.1810   73.4903   -7.5738 C.3     1  UNL1        0.1764
     12 C          20.1027   73.2073   -8.6288 C.3     1  UNL1        0.2383
     13 H          21.5591   76.3063   -9.0569 H       1  UNL1        0.2105
     14 H          19.2884   76.2945   -7.8799 H       1  UNL1        0.2106
     15 O          19.3454   70.9912  -10.2078 O.2     1  UNL1       -0.2464
     16 O          15.9546   69.8479   -7.3032 O.2     1  UNL1       -0.2670
     17 N          19.0258   72.3133   -8.3086 N.ar    1  UNL1       -0.2551
     18 N          17.6578   70.4236   -8.7601 N.ar    1  UNL1       -0.2743
     19 C          18.7266   71.2314   -9.1690 C.ar    1  UNL1        0.3323
     20 C          18.2795   72.5135   -7.1524 C.ar    1  UNL1        0.0869
     21 C          17.2625   71.7349   -6.7774 C.ar    1  UNL1        0.0795
     22 C          16.8849   70.5824   -7.6208 C.ar    1  UNL1        0.2626
     23 H          17.4309   69.6639   -9.3442 H       1  UNL1        0.1734
     24 O          22.2123   73.0318   -2.9916 O.3     1  UNL1       -0.2703
     25 P          22.3237   71.4378   -2.7472 P.3     1  UNL1        0.2208
     26 O          22.2668   71.3046   -1.1358 O.co2   1  UNL1       -0.4371
     27 O          23.5276   70.8010   -3.3790 O.2     1  UNL1       -0.5170
     28 O          20.9103   70.8469   -3.2553 O.3     1  UNL1       -0.2858
     29 O          19.3385   71.3802   -1.5636 O.3     1  UNL1       -0.3258
     30 O          16.8495   69.3546   -4.1622 O.3     1  UNL1       -0.3794
     31 O          16.6244   72.2071   -3.9170 O.3     1  UNL1       -0.3794
     32 O          19.5634   68.4353   -3.7507 O.3     1  UNL1       -0.3775
     33 C          17.9364   70.2107   -3.8002 C.3     1  UNL1        0.1715
     34 C          17.3720   71.3963   -3.0149 C.3     1  UNL1        0.1694
     35 C          18.9288   69.4236   -2.9463 C.3     1  UNL1        0.1967
     36 C          18.4953   72.2156   -2.3654 C.3     1  UNL1        0.1761
     37 C          19.9747   70.3392   -2.3076 C.3     1  UNL1        0.2704
     38 H          16.2160   69.8481   -4.7050 H       1  UNL1        0.2105
     39 H          15.9187   71.6777   -4.3207 H       1  UNL1        0.2105
     40 H          18.8907   67.8621   -4.1490 H       1  UNL1        0.2106
     41 O          17.3704   74.3206   -2.2525 O.3     1  UNL1       -0.3794
     42 C          17.9496   73.3088   -1.4492 C.3     1  UNL1        0.1693
     43 H          17.0185   75.0229   -1.6828 H       1  UNL1        0.2105
@<TRIPOS>UNITY_ATOM_ATTR
2 1
charge -1
26 1
charge -1
@<TRIPOS>BOND
     1    25    28    1
     2    25    24    1
     3    25    26    1
     4    25    27    2
     5     1     4    1
     6     1    24    1
     7     1     2    1
     8     1     3    2
     9     6    11    1
    10     6    12    1
    11    29    36    1
    12    29    37    1
    13     7     9    1
    14     7    13    1
    15     8    10    1
    16     8    14    1
    17    28    37    1
    18     4     5    1
    19    30    33    1
    20    30    38    1
    21    31    34    1
    22    31    39    1
    23    32    35    1
    24    32    40    1
    25    41    42    1
    26    41    43    1
    27    15    19    2
    28    16    22    2
    29    17    12    1
    30    17    19   ar
    31    17    20   ar
    32    18    19   ar
    33    18    22   ar
    34    18    23    1
    35     9    10    1
    36     9    11    1
    37    10    12    1
    38    11     5    1
    39    33    34    1
    40    33    35    1
    41    34    36    1
    42    35    37    1
    43    36    42    1
    44    20    21   ar
    45    21    22   ar
@<TRIPOS>MOLECULE
*****
 43 45 0 0 0
SMALL
GASTEIGER

@<TRIPOS>ATOM
      1 P          22.4091   73.2546   -4.2439 P.3     1  UNL1        0.2189
      2 O          23.8416   72.5126   -4.1211 O.co2   1  UNL1       -0.4371
      3 O          22.0045   74.0546   -3.0408 O.2     1  UNL1       -0.5170
      4 O          21.3940   72.0704   -4.6741 O.3     1  UNL1       -0.3112
      5 C          20.8116   71.2759   -3.6555 C.3     1  UNL1        0.1811
      6 O          18.8670   72.1740   -4.7443 O.3     1  UNL1       -0.3308
      7 O          17.2977   71.0721   -2.4391 O.3     1  UNL1       -0.3794
      8 O          16.8660   69.2185   -4.3921 O.3     1  UNL1       -0.3779
      9 C          18.4457   70.5302   -3.0901 C.3     1  UNL1        0.1713
     10 C          18.0652   69.9643   -4.4424 C.3     1  UNL1        0.1895
     11 C          19.3572   71.6888   -3.4753 C.3     1  UNL1        0.1764
     12 C          17.9367   71.2217   -5.2853 C.3     1  UNL1        0.2383
     13 H          16.7007   70.3509   -2.1834 H       1  UNL1        0.2105
     14 H          16.9988   68.4290   -3.8445 H       1  UNL1        0.2106
     15 O          16.0681   70.4073   -7.2406 O.2     1  UNL1       -0.2464
     16 O          19.2750   70.3637  -10.5505 O.2     1  UNL1       -0.2670
     17 N          18.2560   70.9905   -6.6659 N.ar    1  UNL1       -0.2551
     18 N          17.6664   70.3864   -8.8871 N.ar    1  UNL1       -0.2743
     19 C          17.2441   70.5827   -7.5661 C.ar    1  UNL1        0.3323
     20 C          19.5601   71.1686   -7.1148 C.ar    1  UNL1        0.0869
     21 C          19.9467   70.9760   -8.3776 C.ar    1  UNL1        0.0795
     22 C          18.9508   70.5492   -9.3816 C.ar    1  UNL1        0.2626
     23 H          16.9787   70.1017   -9.5320 H       1  UNL1        0.1734
     24 O          22.5609   74.1149   -5.6040 O.3     1  UNL1       -0.2703
     25 P          23.1659   75.5911   -5.8643 P.3     1  UNL1        0.2208
     26 O          24.4613   75.6372   -4.8961 O.co2   1  UNL1       -0.4371
     27 O          22.1858   76.7061   -5.6409 O.2     1  UNL1       -0.5170
     28 O          23.7753   75.5253   -7.3575 O.3     1  UNL1       -0.2858
     29 O          25.2704   77.3502   -7.5833 O.3     1  UNL1       -0.3258
     30 O          25.5099   75.8231  -11.4124 O.3     1  UNL1       -0.3794
     31 O          27.7219   75.4885   -9.6115 O.3     1  UNL1       -0.3794
     32 O          22.9691   75.8517  -10.0255 O.3     1  UNL1       -0.3775
     33 C          25.3757   75.7587   -9.9900 C.3     1  UNL1        0.1715
     34 C          26.6300   76.3693   -9.3618 C.3     1  UNL1        0.1694
     35 C          24.1305   76.5376   -9.5703 C.3     1  UNL1        0.1967
     36 C          26.4475   76.5796   -7.8527 C.3     1  UNL1        0.1761
     37 C          24.0708   76.7329   -8.0543 C.3     1  UNL1        0.2704
     38 H          26.2984   75.3301  -11.6855 H       1  UNL1        0.2105
     39 H          27.8260   75.3638  -10.5680 H       1  UNL1        0.2105
     40 H          23.0189   75.7346  -10.9866 H       1  UNL1        0.2106
     41 O          28.6641   76.4055   -6.9779 O.3     1  UNL1       -0.3794
     42 C          27.6239   77.3312   -7.2336 C.3     1  UNL1        0.1693
     43 H          29.4197   76.8698   -6.5840 H       1  UNL1        0.2105
@<TRIPOS>UNITY_ATOM_ATTR
2 1
charge -1
26 1
charge -1
@<TRIPOS>BOND
     1    25    28    1
     2    25    24    1
     3    25    26    1
     4    25    27    2
     5     1     4    1
     6     1    24    1
     7     1     2    1
     8     1     3    2
     9     6    11    1
    10     6    12    1
    11    29    36    1
    12    29    37    1
    13     7     9    1
    14     7    13    1
    15     8    10    1
    16     8    14    1
    17    28    37    1
    18     4     5    1
    19    30    33    1
    20    30    38    1
    21    31    34    1
    22    31    39    1
    23    32    35    1
    24    32    40    1
    25    41    42    1
    26    41    43    1
    27    15    19    2
    28    16    22    2
    29    17    12    1
    30    17    19   ar
    31    17    20   ar
    32    18    19   ar
    33    18    22   ar
    34    18    23    1
    35     9    10    1
    36     9    11    1
    37    10    12    1
    38    11     5    1
    39    33    34    1
    40    33    35    1
    41    34    36    1
    42    35    37    1
    43    36    42    1
    44    20    21   ar
    45    21    22   ar
@<TRIPOS>MOLECULE
*****
 43 45 0 0 0
SMALL
GASTEIGER

@<TRIPOS>ATOM
      1 P          21.9905   73.7926   -6.1129 P.3     1  UNL1        0.2189
      2 O          22.7578   74.8550   -7.0616 O.co2   1  UNL1       -0.4371
      3 O          22.8850   72.8396   -5.3760 O.2     1  UNL1       -0.5170
      4 O          20.8975   73.1143   -7.0942 O.3     1  UNL1       -0.3112
      5 C          21.3542   72.2511   -8.1209 C.3     1  UNL1        0.1811
      6 O          19.6038   70.6209   -8.3498 O.3     1  UNL1       -0.3308
      7 O          18.2653   72.5889  -10.1736 O.3     1  UNL1       -0.3794
      8 O          16.9036   72.9245   -7.8349 O.3     1  UNL1       -0.3779
      9 C          19.0367   72.8287   -8.9977 C.3     1  UNL1        0.1713
     10 C          18.2385   72.4669   -7.7625 C.3     1  UNL1        0.1895
     11 C          20.1641   71.8046   -8.9591 C.3     1  UNL1        0.1764
     12 C          18.3374   70.9509   -7.7563 C.3     1  UNL1        0.2383
     13 H          17.5392   73.2311  -10.2203 H       1  UNL1        0.2105
     14 H          16.8937   73.8944   -7.8359 H       1  UNL1        0.2106
     15 O          16.1105   69.5931   -6.6724 O.2     1  UNL1       -0.2464
     16 O          18.2588   68.8974   -2.6547 O.2     1  UNL1       -0.2670
     17 N          18.2877   70.4042   -6.4296 N.ar    1  UNL1       -0.2551
     18 N          17.1820   69.2476   -4.6728 N.ar    1  UNL1       -0.2743
     19 C          17.1209   69.7417   -5.9821 C.ar    1  UNL1        0.3323
     20 C          19.3876   70.5273   -5.5876 C.ar    1  UNL1        0.0869
     21 C          19.4294   70.0517   -4.3413 C.ar    1  UNL1        0.0795
     22 C          18.2515   69.3461   -3.7968 C.ar    1  UNL1        0.2626
     23 H          16.3806   68.7826   -4.3394 H       1  UNL1        0.1734
     24 O          21.0880   74.7393   -5.1629 O.3     1  UNL1       -0.2703
     25 P          21.5056   75.7994   -4.0163 P.3     1  UNL1        0.2208
     26 O          20.1457   76.6429   -3.7780 O.co2   1  UNL1       -0.4371
     27 O          22.7023   76.6382   -4.3601 O.2     1  UNL1       -0.5170
     28 O          21.6734   74.9106   -2.6797 O.3     1  UNL1       -0.2858
     29 O          21.2903   72.6087   -2.2660 O.3     1  UNL1       -0.3258
     30 O          19.8950   74.1605    1.2971 O.3     1  UNL1       -0.3794
     31 O          22.3916   72.7416    1.2494 O.3     1  UNL1       -0.3794
     32 O          19.3898   75.5623   -1.1847 O.3     1  UNL1       -0.3775
     33 C          20.7491   74.0904    0.1521 C.3     1  UNL1        0.1715
     34 C          21.4632   72.7374    0.1685 C.3     1  UNL1        0.1694
     35 C          19.9032   74.2366   -1.1114 C.3     1  UNL1        0.1967
     36 C          22.1891   72.4780   -1.1584 C.3     1  UNL1        0.1761
     37 C          20.7075   73.9092   -2.3707 C.3     1  UNL1        0.2704
     38 H          20.4261   74.0688    2.1028 H       1  UNL1        0.2105
     39 H          21.9205   72.9070    2.0813 H       1  UNL1        0.2105
     40 H          18.8824   75.7573   -0.3819 H       1  UNL1        0.2106
     41 O          21.8039   70.2034   -1.7804 O.3     1  UNL1       -0.3794
     42 C          22.7756   71.0695   -1.2236 C.3     1  UNL1        0.1693
     43 H          22.1633   69.3033   -1.8284 H       1  UNL1        0.2105
@<TRIPOS>UNITY_ATOM_ATTR
2 1
charge -1
26 1
charge -1
@<TRIPOS>BOND
     1    25    28    1
     2    25    24    1
     3    25    26    1
     4    25    27    2
     5     1     4    1
     6     1    24    1
     7     1     2    1
     8     1     3    2
     9     6    11    1
    10     6    12    1
    11    29    36    1
    12    29    37    1
    13     7     9    1
    14     7    13    1
    15     8    10    1
    16     8    14    1
    17    28    37    1
    18     4     5    1
    19    30    33    1
    20    30    38    1
    21    31    34    1
    22    31    39    1
    23    32    35    1
    24    32    40    1
    25    41    42    1
    26    41    43    1
    27    15    19    2
    28    16    22    2
    29    17    12    1
    30    17    19   ar
    31    17    20   ar
    32    18    19   ar
    33    18    22   ar
    34    18    23    1
    35     9    10    1
    36     9    11    1
    37    10    12    1
    38    11     5    1
    39    33    34    1
    40    33    35    1
    41    34    36    1
    42    35    37    1
    43    36    42    1
    44    20    21   ar
    45    21    22   ar
@<TRIPOS>MOLECULE
*****
 43 45 0 0 0
SMALL
GASTEIGER

@<TRIPOS>ATOM
      1 P          22.1044   73.7206   -5.4174 P.3     1  UNL1        0.2189
      2 O          22.1323   75.2722   -5.8747 O.co2   1  UNL1       -0.4371
      3 O          23.4145   73.1822   -4.9223 O.2     1  UNL1       -0.5170
      4 O          21.4647   72.9523   -6.6895 O.3     1  UNL1       -0.3112
      5 C          20.4782   73.6201   -7.4568 C.3     1  UNL1        0.1811
      6 O          19.8463   71.3386   -7.8679 O.3     1  UNL1       -0.3308
      7 O          18.2285   72.3960  -10.1603 O.3     1  UNL1       -0.3794
      8 O          16.3405   72.0013   -8.2325 O.3     1  UNL1       -0.3779
      9 C          18.4696   72.9798   -8.8811 C.3     1  UNL1        0.1713
     10 C          17.6651   72.2639   -7.8163 C.3     1  UNL1        0.1895
     11 C          19.9003   72.6477   -8.4759 C.3     1  UNL1        0.1764
     12 C          18.4752   70.9955   -7.6089 C.3     1  UNL1        0.2383
     13 H          17.3208   72.5950  -10.4404 H       1  UNL1        0.2105
     14 H          15.8664   72.8391   -8.3507 H       1  UNL1        0.2106
     15 O          16.2673   69.5292   -6.6325 O.2     1  UNL1       -0.2464
     16 O          18.1651   69.1028   -2.4542 O.2     1  UNL1       -0.2670
     17 N          18.3661   70.4887   -6.2700 N.ar    1  UNL1       -0.2551
     18 N          17.2141   69.3179   -4.5529 N.ar    1  UNL1       -0.2743
     19 C          17.2149   69.7655   -5.8802 C.ar    1  UNL1        0.3323
     20 C          19.3936   70.7102   -5.3595 C.ar    1  UNL1        0.0869
     21 C          19.3770   70.2778   -4.0969 C.ar    1  UNL1        0.0795
     22 C          18.2104   69.5138   -3.6096 C.ar    1  UNL1        0.2626
     23 H          16.4221   68.8121   -4.2588 H       1  UNL1        0.1734
     24 O          20.9080   73.6833   -4.3311 O.3     1  UNL1       -0.2703
     25 P          20.8689   74.1337   -2.7791 P.3     1  UNL1        0.2208
     26 O          19.3122   74.5035   -2.5392 O.co2   1  UNL1       -0.4371
     27 O          21.8276   75.2362   -2.4340 O.2     1  UNL1       -0.5170
     28 O          21.0954   72.7668   -1.9513 O.3     1  UNL1       -0.2858
     29 O          22.8277   73.2790   -0.4172 O.3     1  UNL1       -0.3258
     30 O          22.1127   69.3624    0.6784 O.3     1  UNL1       -0.3794
     31 O          21.2718   71.4948    2.4086 O.3     1  UNL1       -0.3794
     32 O          22.0172   70.1212   -2.1135 O.3     1  UNL1       -0.3775
     33 C          21.7645   70.6709    0.2179 C.3     1  UNL1        0.1715
     34 C          22.1502   71.6792    1.3020 C.3     1  UNL1        0.1694
     35 C          22.5182   70.9607   -1.0787 C.3     1  UNL1        0.1967
     36 C          22.0555   73.1187    0.7786 C.3     1  UNL1        0.1761
     37 C          22.3994   72.4309   -1.4845 C.3     1  UNL1        0.2704
     38 H          21.6371   69.1719    1.5012 H       1  UNL1        0.2105
     39 H          21.3410   70.5818    2.7293 H       1  UNL1        0.2105
     40 H          22.0982   69.1933   -1.8446 H       1  UNL1        0.2106
     41 O          21.5557   75.0584    2.0812 O.3     1  UNL1       -0.3794
     42 C          22.5857   74.1315    1.7911 C.3     1  UNL1        0.1693
     43 H          21.8787   75.7090    2.7246 H       1  UNL1        0.2105
@<TRIPOS>UNITY_ATOM_ATTR
2 1
charge -1
26 1
charge -1
@<TRIPOS>BOND
     1    25    28    1
     2    25    24    1
     3    25    26    1
     4    25    27    2
     5     1     4    1
     6     1    24    1
     7     1     2    1
     8     1     3    2
     9     6    11    1
    10     6    12    1
    11    29    36    1
    12    29    37    1
    13     7     9    1
    14     7    13    1
    15     8    10    1
    16     8    14    1
    17    28    37    1
    18     4     5    1
    19    30    33    1
    20    30    38    1
    21    31    34    1
    22    31    39    1
    23    32    35    1
    24    32    40    1
    25    41    42    1
    26    41    43    1
    27    15    19    2
    28    16    22    2
    29    17    12    1
    30    17    19   ar
    31    17    20   ar
    32    18    19   ar
    33    18    22   ar
    34    18    23    1
    35     9    10    1
    36     9    11    1
    37    10    12    1
    38    11     5    1
    39    33    34    1
    40    33    35    1
    41    34    36    1
    42    35    37    1
    43    36    42    1
    44    20    21   ar
    45    21    22   ar
@<TRIPOS>MOLECULE
*****
 43 45 0 0 0
SMALL
GASTEIGER

@<TRIPOS>ATOM
      1 P          21.3475   70.4801   -0.7835 P.3     1  UNL1        0.2189
      2 O          22.5716   70.5291   -1.8402 O.co2   1  UNL1       -0.4371
      3 O          21.6593   69.7986    0.5164 O.2     1  UNL1       -0.5170
      4 O          20.1256   69.8463   -1.6338 O.3     1  UNL1       -0.3112
      5 C          19.9266   70.2895   -2.9649 C.3     1  UNL1        0.1811
      6 O          18.8265   72.2499   -3.8137 O.3     1  UNL1       -0.3308
      7 O          16.2542   70.7860   -3.3328 O.3     1  UNL1       -0.3794
      8 O          16.6141   70.4885   -6.0195 O.3     1  UNL1       -0.3779
      9 C          17.5133   70.2777   -3.7704 C.3     1  UNL1        0.1713
     10 C          17.7622   70.6616   -5.2141 C.3     1  UNL1        0.1895
     11 C          18.6086   71.0477   -3.0432 C.3     1  UNL1        0.1764
     12 C          18.1725   72.1188   -5.0865 C.3     1  UNL1        0.2383
     13 H          15.5389   70.3093   -3.7834 H       1  UNL1        0.2105
     14 H          16.3934   69.5453   -6.0698 H       1  UNL1        0.2106
     15 O          19.8246   70.3507   -6.5433 O.2     1  UNL1       -0.2464
     16 O          21.6196   73.7884   -9.0335 O.2     1  UNL1       -0.2670
     17 N          19.0810   72.5247   -6.1215 N.ar    1  UNL1       -0.2551
     18 N          20.7169   72.0638   -7.7822 N.ar    1  UNL1       -0.2743
     19 C          19.8663   71.5575   -6.7911 C.ar    1  UNL1        0.3323
     20 C          19.1862   73.8685   -6.4634 C.ar    1  UNL1        0.0869
     21 C          20.0032   74.3352   -7.4100 C.ar    1  UNL1        0.0795
     22 C          20.8581   73.3904   -8.1574 C.ar    1  UNL1        0.2626
     23 H          21.2739   71.4085   -8.2618 H       1  UNL1        0.1734
     24 O          20.9253   72.0342   -0.6440 O.3     1  UNL1       -0.2703
     25 P          21.8211   73.3622   -0.4267 P.3     1  UNL1        0.2208
     26 O          20.9530   74.5182   -1.1531 O.co2   1  UNL1       -0.4371
     27 O          23.2318   73.2413   -0.9257 O.2     1  UNL1       -0.5170
     28 O          21.6945   73.6869    1.1492 O.3     1  UNL1       -0.2858
     29 O          23.6308   74.1656    2.4291 O.3     1  UNL1       -0.3258
     30 O          21.0997   72.9946    5.4744 O.3     1  UNL1       -0.3794
     31 O          21.7856   75.7687    5.1885 O.3     1  UNL1       -0.3794
     32 O          21.0262   71.6212    2.9272 O.3     1  UNL1       -0.3775
     33 C          21.4426   73.6054    4.2275 C.3     1  UNL1        0.1715
     34 C          22.4577   74.7170    4.5012 C.3     1  UNL1        0.1694
     35 C          22.0400   72.5479    3.3012 C.3     1  UNL1        0.1967
     36 C          23.0728   75.2392    3.1958 C.3     1  UNL1        0.1761
     37 C          22.6683   73.1773    2.0565 C.3     1  UNL1        0.2704
     38 H          20.7194   73.6606    6.0670 H       1  UNL1        0.2105
     39 H          21.4014   75.4256    6.0106 H       1  UNL1        0.2105
     40 H          20.6366   71.2295    3.7238 H       1  UNL1        0.2106
     41 O          24.5589   76.1654    4.8213 O.3     1  UNL1       -0.3794
     42 C          24.2004   76.2362    3.4536 C.3     1  UNL1        0.1693
     43 H          25.2759   76.7945    5.0000 H       1  UNL1        0.2105
@<TRIPOS>UNITY_ATOM_ATTR
2 1
charge -1
26 1
charge -1
@<TRIPOS>BOND
     1    25    28    1
     2    25    24    1
     3    25    26    1
     4    25    27    2
     5     1     4    1
     6     1    24    1
     7     1     2    1
     8     1     3    2
     9     6    11    1
    10     6    12    1
    11    29    36    1
    12    29    37    1
    13     7     9    1
    14     7    13    1
    15     8    10    1
    16     8    14    1
    17    28    37    1
    18     4     5    1
    19    30    33    1
    20    30    38    1
    21    31    34    1
    22    31    39    1
    23    32    35    1
    24    32    40    1
    25    41    42    1
    26    41    43    1
    27    15    19    2
    28    16    22    2
    29    17    12    1
    30    17    19   ar
    31    17    20   ar
    32    18    19   ar
    33    18    22   ar
    34    18    23    1
    35     9    10    1
    36     9    11    1
    37    10    12    1
    38    11     5    1
    39    33    34    1
    40    33    35    1
    41    34    36    1
    42    35    37    1
    43    36    42    1
    44    20    21   ar
    45    21    22   ar
@<TRIPOS>MOLECULE
*****
 43 45 0 0 0
SMALL
GASTEIGER

@<TRIPOS>ATOM
      1 P          20.0322   75.3352   -6.5533 P.3     1  UNL1        0.2189
      2 O          18.9908   74.3442   -5.8110 O.co2   1  UNL1       -0.4371
      3 O          19.5258   76.7284   -6.7851 O.2     1  UNL1       -0.5170
      4 O          20.4695   74.5169   -7.8788 O.3     1  UNL1       -0.3112
      5 C          20.9295   73.1849   -7.7301 C.3     1  UNL1        0.1811
      6 O          19.9492   71.0171   -8.0675 O.3     1  UNL1       -0.3308
      7 O          18.4429   72.2591  -10.3433 O.3     1  UNL1       -0.3794
      8 O          16.5742   72.1950   -8.3582 O.3     1  UNL1       -0.3779
      9 C          18.8065   72.8263   -9.0857 C.3     1  UNL1        0.1713
     10 C          17.9348   72.2628   -7.9829 C.3     1  UNL1        0.1895
     11 C          20.1820   72.2900   -8.7093 C.3     1  UNL1        0.1764
     12 C          18.5502   70.8910   -7.7648 C.3     1  UNL1        0.2383
     13 H          17.5677   72.5873  -10.6048 H       1  UNL1        0.2105
     14 H          16.2285   73.0923   -8.4851 H       1  UNL1        0.2106
     15 O          16.2151   69.6862   -6.7284 O.2     1  UNL1       -0.2464
     16 O          18.1071   69.1808   -2.5563 O.2     1  UNL1       -0.2670
     17 N          18.4052   70.4346   -6.4113 N.ar    1  UNL1       -0.2551
     18 N          17.1591   69.4354   -4.6519 N.ar    1  UNL1       -0.2743
     19 C          17.1905   69.8443   -5.9913 C.ar    1  UNL1        0.3323
     20 C          19.4603   70.5740   -5.5162 C.ar    1  UNL1        0.0869
     21 C          19.4140   70.1801   -4.2419 C.ar    1  UNL1        0.0795
     22 C          18.1810   69.5535   -3.7232 C.ar    1  UNL1        0.2626
     23 H          16.3229   69.0217   -4.3369 H       1  UNL1        0.1734
     24 O          21.3486   75.2445   -5.6196 O.3     1  UNL1       -0.2703
     25 P          21.5813   75.6452   -4.0709 P.3     1  UNL1        0.2208
     26 O          20.1849   76.3489   -3.6559 O.co2   1  UNL1       -0.4371
     27 O          22.7971   76.4924   -3.8305 O.2     1  UNL1       -0.5170
     28 O          21.5795   74.2381   -3.2802 O.3     1  UNL1       -0.2858
     29 O          22.2695   73.5862   -1.1087 O.3     1  UNL1       -0.3258
     30 O          23.7224   70.3719   -3.2554 O.3     1  UNL1       -0.3794
     31 O          21.4205   70.0291   -1.5725 O.3     1  UNL1       -0.3794
     32 O          23.8701   73.0388   -4.3712 O.3     1  UNL1       -0.3775
     33 C          22.8017   71.4206   -2.9425 C.3     1  UNL1        0.1715
     34 C          22.2609   71.1790   -1.5319 C.3     1  UNL1        0.1694
     35 C          23.5287   72.7619   -3.0172 C.3     1  UNL1        0.1967
     36 C          21.4768   72.3962   -1.0232 C.3     1  UNL1        0.1761
     37 C          22.6803   73.8972   -2.4415 C.3     1  UNL1        0.2704
     38 H          23.2669   69.5175   -3.2102 H       1  UNL1        0.2105
     39 H          21.9276   69.2678   -1.8958 H       1  UNL1        0.2105
     40 H          24.4073   72.3131   -4.7240 H       1  UNL1        0.2106
     41 O          21.6041   71.0281    0.9316 O.3     1  UNL1       -0.3794
     42 C          21.0631   72.2399    0.4385 C.3     1  UNL1        0.1693
     43 H          21.3492   70.9154    1.8611 H       1  UNL1        0.2105
@<TRIPOS>UNITY_ATOM_ATTR
2 1
charge -1
26 1
charge -1
@<TRIPOS>BOND
     1    25    28    1
     2    25    24    1
     3    25    26    1
     4    25    27    2
     5     1     4    1
     6     1    24    1
     7     1     2    1
     8     1     3    2
     9     6    11    1
    10     6    12    1
    11    29    36    1
    12    29    37    1
    13     7     9    1
    14     7    13    1
    15     8    10    1
    16     8    14    1
    17    28    37    1
    18     4     5    1
    19    30    33    1
    20    30    38    1
    21    31    34    1
    22    31    39    1
    23    32    35    1
    24    32    40    1
    25    41    42    1
    26    41    43    1
    27    15    19    2
    28    16    22    2
    29    17    12    1
    30    17    19   ar
    31    17    20   ar
    32    18    19   ar
    33    18    22   ar
    34    18    23    1
    35     9    10    1
    36     9    11    1
    37    10    12    1
    38    11     5    1
    39    33    34    1
    40    33    35    1
    41    34    36    1
    42    35    37    1
    43    36    42    1
    44    20    21   ar
    45    21    22   ar
@<TRIPOS>MOLECULE
*****
 43 45 0 0 0
SMALL
GASTEIGER

@<TRIPOS>ATOM
      1 P          23.1163   74.8045   -4.0641 P.3     1  UNL1        0.2189
      2 O          24.3071   73.7142   -4.1673 O.co2   1  UNL1       -0.4371
      3 O          23.3460   76.0690   -4.8384 O.2     1  UNL1       -0.5170
      4 O          22.8929   74.9862   -2.4720 O.3     1  UNL1       -0.3112
      5 C          22.0545   74.0644   -1.7973 C.3     1  UNL1        0.1811
      6 O          23.2204   72.7706   -0.1418 O.3     1  UNL1       -0.3308
      7 O          22.9163   70.4479   -2.0136 O.3     1  UNL1       -0.3794
      8 O          20.9420   70.0012   -0.1863 O.3     1  UNL1       -0.3779
      9 C          22.0129   71.5209   -1.7531 C.3     1  UNL1        0.1713
     10 C          21.3522   71.3359   -0.4030 C.3     1  UNL1        0.1895
     11 C          22.8358   72.7844   -1.5340 C.3     1  UNL1        0.1764
     12 C          22.4534   71.7710    0.5490 C.3     1  UNL1        0.2383
     13 H          22.4139   69.6301   -2.1571 H       1  UNL1        0.2105
     14 H          20.2407   69.7720   -0.8159 H       1  UNL1        0.2106
     15 O          20.3238   73.6229    0.6659 O.2     1  UNL1       -0.2464
     16 O          20.5535   73.8751    5.2620 O.2     1  UNL1       -0.2670
     17 N          21.9360   72.3367    1.7630 N.ar    1  UNL1       -0.2551
     18 N          20.4398   73.7468    2.9543 N.ar    1  UNL1       -0.2743
     19 C          20.8648   73.2588    1.7120 C.ar    1  UNL1        0.3323
     20 C          22.4896   71.9759    2.9866 C.ar    1  UNL1        0.0869
     21 C          22.0737   72.4513    4.1623 C.ar    1  UNL1        0.0795
     22 C          20.9587   73.4196    4.1970 C.ar    1  UNL1        0.2626
     23 H          19.6950   74.3909    2.9434 H       1  UNL1        0.1734
     24 O          21.8132   73.9637   -4.5202 O.3     1  UNL1       -0.2703
     25 P          21.2228   73.6344   -5.9885 P.3     1  UNL1        0.2208
     26 O          22.3125   72.6100   -6.6054 O.co2   1  UNL1       -0.4371
     27 O          20.9650   74.8476   -6.8344 O.2     1  UNL1       -0.5170
     28 O          19.9194   72.7240   -5.7099 O.3     1  UNL1       -0.2858
     29 O          20.0413   70.3854   -5.3461 O.3     1  UNL1       -0.3258
     30 O          16.1746   70.6304   -6.7743 O.3     1  UNL1       -0.3794
     31 O          16.6260   70.1085   -3.9865 O.3     1  UNL1       -0.3794
     32 O          18.2459   72.2958   -7.9215 O.3     1  UNL1       -0.3775
     33 C          17.3296   71.0754   -6.0579 C.3     1  UNL1        0.1715
     34 C          17.6499   70.0429   -4.9753 C.3     1  UNL1        0.1694
     35 C          18.4984   71.2136   -7.0317 C.3     1  UNL1        0.1967
     36 C          19.0219   70.3111   -4.3425 C.3     1  UNL1        0.1761
     37 C          19.8230   71.4291   -6.2973 C.3     1  UNL1        0.2704
     38 H          15.4287   70.5411   -6.1619 H       1  UNL1        0.2105
     39 H          15.7648   69.9378   -4.3993 H       1  UNL1        0.2105
     40 H          17.4049   72.1473   -8.3804 H       1  UNL1        0.2106
     41 O          18.6175   69.2965   -2.2174 O.3     1  UNL1       -0.3794
     42 C          19.4306   69.2045   -3.3726 C.3     1  UNL1        0.1693
     43 H          18.8661   68.5981   -1.5912 H       1  UNL1        0.2105
@<TRIPOS>UNITY_ATOM_ATTR
2 1
charge -1
26 1
charge -1
@<TRIPOS>BOND
     1    25    28    1
     2    25    24    1
     3    25    26    1
     4    25    27    2
     5     1     4    1
     6     1    24    1
     7     1     2    1
     8     1     3    2
     9     6    11    1
    10     6    12    1
    11    29    36    1
    12    29    37    1
    13     7     9    1
    14     7    13    1
    15     8    10    1
    16     8    14    1
    17    28    37    1
    18     4     5    1
    19    30    33    1
    20    30    38    1
    21    31    34    1
    22    31    39    1
    23    32    35    1
    24    32    40    1
    25    41    42    1
    26    41    43    1
    27    15    19    2
    28    16    22    2
    29    17    12    1
    30    17    19   ar
    31    17    20   ar
    32    18    19   ar
    33    18    22   ar
    34    18    23    1
    35     9    10    1
    36     9    11    1
    37    10    12    1
    38    11     5    1
    39    33    34    1
    40    33    35    1
    41    34    36    1
    42    35    37    1
    43    36    42    1
    44    20    21   ar
    45    21    22   ar
@<TRIPOS>MOLECULE
*****
 43 45 0 0 0
SMALL
GASTEIGER

@<TRIPOS>ATOM
      1 P          22.5709   75.7345   -4.2907 P.3     1  UNL1        0.2189
      2 O          24.0383   75.3894   -4.8782 O.co2   1  UNL1       -0.4371
      3 O          22.1380   77.1606   -4.4644 O.2     1  UNL1       -0.5170
      4 O          22.6272   75.1981   -2.7653 O.3     1  UNL1       -0.3112
      5 C          21.7915   74.1143   -2.3983 C.3     1  UNL1        0.1811
      6 O          23.1136   72.8018   -0.8808 O.3     1  UNL1       -0.3308
      7 O          22.7958   70.5557   -2.8416 O.3     1  UNL1       -0.3794
      8 O          20.9604   69.9339   -0.9229 O.3     1  UNL1       -0.3779
      9 C          21.8642   71.5723   -2.4754 C.3     1  UNL1        0.1713
     10 C          21.2975   71.2949   -1.0987 C.3     1  UNL1        0.1895
     11 C          22.6429   72.8614   -2.2450 C.3     1  UNL1        0.1764
     12 C          22.4356   71.7368   -0.1945 C.3     1  UNL1        0.2383
     13 H          22.3217   69.7227   -2.9943 H       1  UNL1        0.2105
     14 H          20.2320   69.7014   -1.5197 H       1  UNL1        0.2106
     15 O          20.3749   73.6413    0.1283 O.2     1  UNL1       -0.2464
     16 O          20.7352   73.5231    4.7215 O.2     1  UNL1       -0.2670
     17 N          21.9705   72.2214    1.0744 N.ar    1  UNL1       -0.2551
     18 N          20.5559   73.5807    2.4151 N.ar    1  UNL1       -0.2743
     19 C          20.9306   73.1787    1.1267 C.ar    1  UNL1        0.3323
     20 C          22.5437   71.7477    2.2495 C.ar    1  UNL1        0.0869
     21 C          22.1758   72.1422    3.4703 C.ar    1  UNL1        0.0795
     22 C          21.0961   73.1401    3.6129 C.ar    1  UNL1        0.2626
     23 H          19.8336   74.2474    2.4762 H       1  UNL1        0.1734
     24 O          21.6220   74.6495   -5.0225 O.3     1  UNL1       -0.2703
     25 P          21.7896   73.8696   -6.4284 P.3     1  UNL1        0.2208
     26 O          22.8434   72.6933   -6.0769 O.co2   1  UNL1       -0.4371
     27 O          22.2016   74.7480   -7.5741 O.2     1  UNL1       -0.5170
     28 O          20.3836   73.1066   -6.6425 O.3     1  UNL1       -0.2858
     29 O          19.3777   71.0034   -6.2165 O.3     1  UNL1       -0.3258
     30 O          18.6574   71.2697  -10.2737 O.3     1  UNL1       -0.3794
     31 O          16.4849   71.5946   -8.4236 O.3     1  UNL1       -0.3794
     32 O          21.1665   72.2200   -9.1873 O.3     1  UNL1       -0.3775
     33 C          18.8133   71.7688   -8.9426 C.3     1  UNL1        0.1715
     34 C          17.7669   71.0955   -8.0523 C.3     1  UNL1        0.1694
     35 C          20.2237   71.4482   -8.4513 C.3     1  UNL1        0.1967
     36 C          18.0398   71.3749   -6.5682 C.3     1  UNL1        0.1761
     37 C          20.3741   71.7155   -6.9526 C.3     1  UNL1        0.2704
     38 H          17.7640   71.4704  -10.5918 H       1  UNL1        0.2105
     39 H          16.3252   71.4122   -9.3630 H       1  UNL1        0.2105
     40 H          21.0613   72.0416  -10.1343 H       1  UNL1        0.2106
     41 O          16.4460   69.6001   -6.4313 O.3     1  UNL1       -0.3794
     42 C          17.1033   70.5856   -5.6560 C.3     1  UNL1        0.1693
     43 H          15.8467   69.0897   -5.8637 H       1  UNL1        0.2105
@<TRIPOS>UNITY_ATOM_ATTR
2 1
charge -1
26 1
charge -1
@<TRIPOS>BOND
     1    25    28    1
     2    25    24    1
     3    25    26    1
     4    25    27    2
     5     1     4    1
     6     1    24    1
     7     1     2    1
     8     1     3    2
     9     6    11    1
    10     6    12    1
    11    29    36    1
    12    29    37    1
    13     7     9    1
    14     7    13    1
    15     8    10    1
    16     8    14    1
    17    28    37    1
    18     4     5    1
    19    30    33    1
    20    30    38    1
    21    31    34    1
    22    31    39    1
    23    32    35    1
    24    32    40    1
    25    41    42    1
    26    41    43    1
    27    15    19    2
    28    16    22    2
    29    17    12    1
    30    17    19   ar
    31    17    20   ar
    32    18    19   ar
    33    18    22   ar
    34    18    23    1
    35     9    10    1
    36     9    11    1
    37    10    12    1
    38    11     5    1
    39    33    34    1
    40    33    35    1
    41    34    36    1
    42    35    37    1
    43    36    42    1
    44    20    21   ar
    45    21    22   ar
@<TRIPOS>MOLECULE
*****
 43 45 0 0 0
SMALL
GASTEIGER

@<TRIPOS>ATOM
      1 P          19.0628   71.1542   -5.6639 P.3     1  UNL1        0.2189
      2 O          17.6055   70.5719   -6.0570 O.co2   1  UNL1       -0.4371
      3 O          19.0754   72.5905   -5.2300 O.2     1  UNL1       -0.5170
      4 O          19.9819   70.7999   -6.9475 O.3     1  UNL1       -0.3112
      5 C          19.3410   70.4693   -8.1673 C.3     1  UNL1        0.1811
      6 O          18.7997   71.8913  -10.0271 O.3     1  UNL1       -0.3308
      7 O          21.5927   72.9550   -9.7859 O.3     1  UNL1       -0.3794
      8 O          20.1107   74.8951   -8.5709 O.3     1  UNL1       -0.3779
      9 C          20.6927   72.5420   -8.7589 C.3     1  UNL1        0.1713
     10 C          19.6032   73.5763   -8.5672 C.3     1  UNL1        0.1895
     11 C          19.9066   71.3444   -9.2775 C.3     1  UNL1        0.1764
     12 C          18.6921   73.2972   -9.7504 C.3     1  UNL1        0.2383
     13 H          22.1062   73.7188   -9.4777 H       1  UNL1        0.2105
     14 H          20.6841   75.0233   -7.7992 H       1  UNL1        0.2106
     15 O          16.8995   74.4147  -11.6255 O.2     1  UNL1       -0.2464
     16 O          13.4506   74.4719   -8.5688 O.2     1  UNL1       -0.2670
     17 N          17.3198   73.6139   -9.4716 N.ar    1  UNL1       -0.2551
     18 N          15.1836   74.4421  -10.1020 N.ar    1  UNL1       -0.2743
     19 C          16.5044   74.1731  -10.4830 C.ar    1  UNL1        0.3323
     20 C          16.7953   73.3696   -8.2070 C.ar    1  UNL1        0.0869
     21 C          15.5340   73.6329   -7.8593 C.ar    1  UNL1        0.0795
     22 C          14.6160   74.2183   -8.8577 C.ar    1  UNL1        0.2626
     23 H          14.5972   74.8323  -10.7902 H       1  UNL1        0.1734
     24 O          19.5823   70.1090   -4.5455 O.3     1  UNL1       -0.2703
     25 P          18.9142   69.6211   -3.1568 P.3     1  UNL1        0.2208
     26 O          19.1676   68.0233   -3.1643 O.co2   1  UNL1       -0.4371
     27 O          17.4759   70.0192   -2.9926 O.2     1  UNL1       -0.5170
     28 O          19.8993   70.1848   -2.0093 O.3     1  UNL1       -0.2858
     29 O          21.9220   70.5912   -3.1756 O.3     1  UNL1       -0.3258
     30 O          23.0239   71.9711    0.5571 O.3     1  UNL1       -0.3794
     31 O          22.5546   73.8469   -1.5664 O.3     1  UNL1       -0.3794
     32 O          21.3543   69.6180    0.3224 O.3     1  UNL1       -0.3775
     33 C          22.1277   71.7331   -0.5318 C.3     1  UNL1        0.1715
     34 C          22.6790   72.4422   -1.7704 C.3     1  UNL1        0.1694
     35 C          22.0256   70.2284   -0.7745 C.3     1  UNL1        0.1967
     36 C          21.9214   72.0167   -3.0354 C.3     1  UNL1        0.1761
     37 C          21.2970   69.9155   -2.0827 C.3     1  UNL1        0.2704
     38 H          23.0929   72.9246    0.7167 H       1  UNL1        0.2105
     39 H          23.0370   74.1023   -0.7644 H       1  UNL1        0.2105
     40 H          21.8254   69.8233    1.1444 H       1  UNL1        0.2106
     41 O          23.9137   72.8814   -4.0314 O.3     1  UNL1       -0.3794
     42 C          22.5549   72.5898   -4.3013 C.3     1  UNL1        0.1693
     43 H          24.3298   73.2467   -4.8284 H       1  UNL1        0.2105
@<TRIPOS>UNITY_ATOM_ATTR
2 1
charge -1
26 1
charge -1
@<TRIPOS>BOND
     1    25    28    1
     2    25    24    1
     3    25    26    1
     4    25    27    2
     5     1     4    1
     6     1    24    1
     7     1     2    1
     8     1     3    2
     9     6    11    1
    10     6    12    1
    11    29    36    1
    12    29    37    1
    13     7     9    1
    14     7    13    1
    15     8    10    1
    16     8    14    1
    17    28    37    1
    18     4     5    1
    19    30    33    1
    20    30    38    1
    21    31    34    1
    22    31    39    1
    23    32    35    1
    24    32    40    1
    25    41    42    1
    26    41    43    1
    27    15    19    2
    28    16    22    2
    29    17    12    1
    30    17    19   ar
    31    17    20   ar
    32    18    19   ar
    33    18    22   ar
    34    18    23    1
    35     9    10    1
    36     9    11    1
    37    10    12    1
    38    11     5    1
    39    33    34    1
    40    33    35    1
    41    34    36    1
    42    35    37    1
    43    36    42    1
    44    20    21   ar
    45    21    22   ar
@<TRIPOS>MOLECULE
*****
 43 45 0 0 0
SMALL
GASTEIGER

@<TRIPOS>ATOM
      1 P          22.6619   73.2294   -4.6225 P.3     1  UNL1        0.2189
      2 O          21.9681   74.6904   -4.5830 O.co2   1  UNL1       -0.4371
      3 O          24.0156   73.1531   -3.9798 O.2     1  UNL1       -0.5170
      4 O          22.6013   72.8127   -6.1847 O.3     1  UNL1       -0.3112
      5 C          21.5932   73.3861   -6.9988 C.3     1  UNL1        0.1811
      6 O          20.3801   71.3130   -7.0674 O.3     1  UNL1       -0.3308
      7 O          19.8436   71.9385   -9.9504 O.3     1  UNL1       -0.3794
      8 O          17.5013   72.6415   -8.7438 O.3     1  UNL1       -0.3779
      9 C          19.9240   72.8242   -8.8349 C.3     1  UNL1        0.1713
     10 C          18.6846   72.6989   -7.9736 C.3     1  UNL1        0.1895
     11 C          21.0127   72.3072   -7.9028 C.3     1  UNL1        0.1764
     12 C          18.9544   71.4081   -7.2192 C.3     1  UNL1        0.2383
     13 H          19.1550   72.2484  -10.5601 H       1  UNL1        0.2105
     14 H          17.3738   73.4856   -9.2043 H       1  UNL1        0.2106
     15 O          18.6790   73.6808   -5.5648 O.2     1  UNL1       -0.2464
     16 O          16.6021   71.2432   -2.2504 O.2     1  UNL1       -0.2670
     17 N          18.3452   71.3961   -5.9191 N.ar    1  UNL1       -0.2551
     18 N          17.6449   72.4653   -3.9159 N.ar    1  UNL1       -0.2743
     19 C          18.2577   72.5920   -5.1691 C.ar    1  UNL1        0.3323
     20 C          17.8423   70.2078   -5.4005 C.ar    1  UNL1        0.0869
     21 C          17.2619   70.1035   -4.2032 C.ar    1  UNL1        0.0795
     22 C          17.1306   71.3065   -3.3561 C.ar    1  UNL1        0.2626
     23 H          17.5731   73.2854   -3.3755 H       1  UNL1        0.1734
     24 O          21.5428   72.2772   -3.9488 O.3     1  UNL1       -0.2703
     25 P          21.6800   70.8775   -3.1520 P.3     1  UNL1        0.2208
     26 O          23.2608   70.5476   -3.2511 O.co2   1  UNL1       -0.4371
     27 O          20.7862   69.7864   -3.6664 O.2     1  UNL1       -0.5170
     28 O          21.4405   71.2639   -1.6033 O.3     1  UNL1       -0.2858
     29 O          23.1195   72.7133   -0.7685 O.3     1  UNL1       -0.3258
     30 O          21.2514   71.7511    2.7861 O.3     1  UNL1       -0.3794
     31 O          20.9071   74.3739    1.6680 O.3     1  UNL1       -0.3794
     32 O          21.5941   69.7304    0.7418 O.3     1  UNL1       -0.3775
     33 C          21.3214   72.0351    1.3862 C.3     1  UNL1        0.1715
     34 C          21.8869   73.4459    1.2108 C.3     1  UNL1        0.1694
     35 C          22.2265   71.0054    0.7125 C.3     1  UNL1        0.1967
     36 C          22.2410   73.7222   -0.2567 C.3     1  UNL1        0.1761
     37 C          22.5569   71.4004   -0.7280 C.3     1  UNL1        0.2704
     38 H          20.6778   72.4010    3.2197 H       1  UNL1        0.2105
     39 H          20.6920   74.1881    2.5956 H       1  UNL1        0.2105
     40 H          21.3904   69.4917    1.6591 H       1  UNL1        0.2106
     41 O          22.6808   75.5491   -1.7324 O.3     1  UNL1       -0.3794
     42 C          22.9517   75.0627   -0.4308 C.3     1  UNL1        0.1693
     43 H          23.1266   76.4020   -1.8575 H       1  UNL1        0.2105
@<TRIPOS>UNITY_ATOM_ATTR
2 1
charge -1
26 1
charge -1
@<TRIPOS>BOND
     1    25    28    1
     2    25    24    1
     3    25    26    1
     4    25    27    2
     5     1     4    1
     6     1    24    1
     7     1     2    1
     8     1     3    2
     9     6    11    1
    10     6    12    1
    11    29    36    1
    12    29    37    1
    13     7     9    1
    14     7    13    1
    15     8    10    1
    16     8    14    1
    17    28    37    1
    18     4     5    1
    19    30    33    1
    20    30    38    1
    21    31    34    1
    22    31    39    1
    23    32    35    1
    24    32    40    1
    25    41    42    1
    26    41    43    1
    27    15    19    2
    28    16    22    2
    29    17    12    1
    30    17    19   ar
    31    17    20   ar
    32    18    19   ar
    33    18    22   ar
    34    18    23    1
    35     9    10    1
    36     9    11    1
    37    10    12    1
    38    11     5    1
    39    33    34    1
    40    33    35    1
    41    34    36    1
    42    35    37    1
    43    36    42    1
    44    20    21   ar
    45    21    22   ar
@<TRIPOS>MOLECULE
*****
 43 45 0 0 0
SMALL
GASTEIGER

@<TRIPOS>ATOM
      1 P          22.5036   73.0015   -4.6935 P.3     1  UNL1        0.2189
      2 O          21.5850   74.3097   -4.4446 O.co2   1  UNL1       -0.4371
      3 O          23.8875   73.0801   -4.1188 O.2     1  UNL1       -0.5170
      4 O          22.4190   72.7658   -6.2920 O.3     1  UNL1       -0.3112
      5 C          21.1834   72.9989   -6.9453 C.3     1  UNL1        0.1811
      6 O          19.1198   71.7721   -6.8436 O.3     1  UNL1       -0.3308
      7 O          20.3756   69.8639   -8.7859 O.3     1  UNL1       -0.3794
      8 O          18.7685   71.3736  -10.3905 O.3     1  UNL1       -0.3779
      9 C          20.5114   71.2814   -8.6979 C.3     1  UNL1        0.1713
     10 C          19.2560   71.9622   -9.2020 C.3     1  UNL1        0.1895
     11 C          20.5093   71.6622   -7.2226 C.3     1  UNL1        0.1764
     12 C          18.3075   71.7827   -8.0288 C.3     1  UNL1        0.2383
     13 H          20.3748   69.5967   -9.7190 H       1  UNL1        0.2105
     14 H          19.4069   71.5147  -11.1069 H       1  UNL1        0.2106
     15 O          15.8989   71.6347   -6.5610 O.2     1  UNL1       -0.2464
     16 O          14.7149   75.9356   -7.7195 O.2     1  UNL1       -0.2670
     17 N          17.3514   72.8491   -7.9294 N.ar    1  UNL1       -0.2551
     18 N          15.3114   73.7764   -7.1389 N.ar    1  UNL1       -0.2743
     19 C          16.1729   72.6723   -7.1676 C.ar    1  UNL1        0.3323
     20 C          17.5869   74.0541   -8.5825 C.ar    1  UNL1        0.0869
     21 C          16.7547   75.0968   -8.5462 C.ar    1  UNL1        0.0795
     22 C          15.5006   74.9945   -7.7723 C.ar    1  UNL1        0.2626
     23 H          14.4838   73.6762   -6.6147 H       1  UNL1        0.1734
     24 O          21.5963   71.8021   -4.1009 O.3     1  UNL1       -0.2703
     25 P          21.9109   70.6934   -2.9674 P.3     1  UNL1        0.2208
     26 O          23.5159   70.5123   -3.0609 O.co2   1  UNL1       -0.4371
     27 O          21.1338   69.4182   -3.1214 O.2     1  UNL1       -0.5170
     28 O          21.6681   71.4598   -1.5678 O.3     1  UNL1       -0.2858
     29 O          23.2982   72.8289   -0.5263 O.3     1  UNL1       -0.3258
     30 O          21.1599   71.6891    2.8173 O.3     1  UNL1       -0.3794
     31 O          20.9318   74.3790    1.8371 O.3     1  UNL1       -0.3794
     32 O          21.6285   69.7877    0.6855 O.3     1  UNL1       -0.3775
     33 C          21.3370   72.0544    1.4459 C.3     1  UNL1        0.1715
     34 C          21.9313   73.4634    1.3979 C.3     1  UNL1        0.1694
     35 C          22.2769   71.0515    0.7796 C.3     1  UNL1        0.1967
     36 C          22.3967   73.8203   -0.0203 C.3     1  UNL1        0.1761
     37 C          22.7181   71.5255   -0.6064 C.3     1  UNL1        0.2704
     38 H          20.5638   72.3217    3.2461 H       1  UNL1        0.2105
     39 H          20.6462   74.1422    2.7336 H       1  UNL1        0.2105
     40 H          21.3544   69.4985    1.5693 H       1  UNL1        0.2106
     41 O          24.5212   74.9005   -0.1885 O.3     1  UNL1       -0.3794
     42 C          23.1347   75.1566   -0.0607 C.3     1  UNL1        0.1693
     43 H          25.0037   75.7421   -0.2159 H       1  UNL1        0.2105
@<TRIPOS>UNITY_ATOM_ATTR
2 1
charge -1
26 1
charge -1
@<TRIPOS>BOND
     1    25    28    1
     2    25    24    1
     3    25    26    1
     4    25    27    2
     5     1     4    1
     6     1    24    1
     7     1     2    1
     8     1     3    2
     9     6    11    1
    10     6    12    1
    11    29    36    1
    12    29    37    1
    13     7     9    1
    14     7    13    1
    15     8    10    1
    16     8    14    1
    17    28    37    1
    18     4     5    1
    19    30    33    1
    20    30    38    1
    21    31    34    1
    22    31    39    1
    23    32    35    1
    24    32    40    1
    25    41    42    1
    26    41    43    1
    27    15    19    2
    28    16    22    2
    29    17    12    1
    30    17    19   ar
    31    17    20   ar
    32    18    19   ar
    33    18    22   ar
    34    18    23    1
    35     9    10    1
    36     9    11    1
    37    10    12    1
    38    11     5    1
    39    33    34    1
    40    33    35    1
    41    34    36    1
    42    35    37    1
    43    36    42    1
    44    20    21   ar
    45    21    22   ar
@<TRIPOS>MOLECULE
*****
 43 45 0 0 0
SMALL
GASTEIGER

@<TRIPOS>ATOM
      1 P          22.5793   72.7319   -4.4827 P.3     1  UNL1        0.2189
      2 O          22.4860   73.0138   -6.0731 O.co2   1  UNL1       -0.4371
      3 O          23.9736   72.6274   -3.9383 O.2     1  UNL1       -0.5170
      4 O          21.6399   71.4330   -4.2627 O.3     1  UNL1       -0.3112
      5 C          20.3761   71.3965   -4.9024 C.3     1  UNL1        0.1811
      6 O          18.2151   72.1360   -4.1559 O.3     1  UNL1       -0.3308
      7 O          18.1096   69.6040   -2.5532 O.3     1  UNL1       -0.3794
      8 O          16.5565   69.0053   -4.7133 O.3     1  UNL1       -0.3779
      9 C          18.6716   69.8315   -3.8446 C.3     1  UNL1        0.1713
     10 C          17.5739   69.9718   -4.8785 C.3     1  UNL1        0.1895
     11 C          19.2915   71.2233   -3.8479 C.3     1  UNL1        0.1764
     12 C          17.0825   71.3871   -4.6262 C.3     1  UNL1        0.2383
     13 H          17.7080   68.7208   -2.5266 H       1  UNL1        0.2105
     14 H          16.9185   68.1219   -4.8846 H       1  UNL1        0.2106
     15 O          17.6502   70.5167   -7.2526 O.2     1  UNL1       -0.2464
     16 O          15.0726   73.8544   -9.1119 O.2     1  UNL1       -0.2670
     17 N          16.5727   72.0099   -5.8151 N.ar    1  UNL1       -0.2551
     18 N          16.3661   72.1792   -8.1763 N.ar    1  UNL1       -0.2743
     19 C          16.9192   71.4953   -7.0861 C.ar    1  UNL1        0.3323
     20 C          15.7388   73.1182   -5.7138 C.ar    1  UNL1        0.0869
     21 C          15.2207   73.7598   -6.7632 C.ar    1  UNL1        0.0795
     22 C          15.5333   73.2859   -8.1269 C.ar    1  UNL1        0.2626
     23 H          16.5940   71.8387   -9.0718 H       1  UNL1        0.1734
     24 O          21.6976   73.9294   -3.8490 O.3     1  UNL1       -0.2703
     25 P          21.7970   74.6795   -2.4205 P.3     1  UNL1        0.2208
     26 O          20.3982   75.4872   -2.3275 O.co2   1  UNL1       -0.4371
     27 O          23.0189   75.5367   -2.2593 O.2     1  UNL1       -0.5170
     28 O          21.6594   73.4989   -1.3287 O.3     1  UNL1       -0.2858
     29 O          23.1037   73.6480    0.5444 O.3     1  UNL1       -0.3258
     30 O          21.9284   69.7083    0.9294 O.3     1  UNL1       -0.3794
     31 O          20.9260   71.6732    2.7685 O.3     1  UNL1       -0.3794
     32 O          22.4114   70.8207   -1.6990 O.3     1  UNL1       -0.3775
     33 C          21.7636   71.0914    0.6050 C.3     1  UNL1        0.1715
     34 C          22.0072   71.9135    1.8721 C.3     1  UNL1        0.1694
     35 C          22.7655   71.4716   -0.4836 C.3     1  UNL1        0.1967
     36 C          22.1115   73.4103    1.5497 C.3     1  UNL1        0.1761
     37 C          22.8263   72.9860   -0.6912 C.3     1  UNL1        0.2704
     38 H          21.2948   69.4603    1.6197 H       1  UNL1        0.2105
     39 H          20.8708   70.7245    2.9635 H       1  UNL1        0.2105
     40 H          22.3765   69.8628   -1.5545 H       1  UNL1        0.2106
     41 O          22.9905   75.4893    2.3331 O.3     1  UNL1       -0.3794
     42 C          22.5104   74.2324    2.7733 C.3     1  UNL1        0.1693
     43 H          23.2479   76.0235    3.1013 H       1  UNL1        0.2105
@<TRIPOS>UNITY_ATOM_ATTR
2 1
charge -1
26 1
charge -1
@<TRIPOS>BOND
     1    25    28    1
     2    25    24    1
     3    25    26    1
     4    25    27    2
     5     1     4    1
     6     1    24    1
     7     1     2    1
     8     1     3    2
     9     6    11    1
    10     6    12    1
    11    29    36    1
    12    29    37    1
    13     7     9    1
    14     7    13    1
    15     8    10    1
    16     8    14    1
    17    28    37    1
    18     4     5    1
    19    30    33    1
    20    30    38    1
    21    31    34    1
    22    31    39    1
    23    32    35    1
    24    32    40    1
    25    41    42    1
    26    41    43    1
    27    15    19    2
    28    16    22    2
    29    17    12    1
    30    17    19   ar
    31    17    20   ar
    32    18    19   ar
    33    18    22   ar
    34    18    23    1
    35     9    10    1
    36     9    11    1
    37    10    12    1
    38    11     5    1
    39    33    34    1
    40    33    35    1
    41    34    36    1
    42    35    37    1
    43    36    42    1
    44    20    21   ar
    45    21    22   ar
@<TRIPOS>MOLECULE
*****
 43 45 0 0 0
SMALL
GASTEIGER

@<TRIPOS>ATOM
      1 P          17.9004   75.5095   -2.3504 P.3     1  UNL1        0.2189
      2 O          16.5330   76.1957   -1.8244 O.co2   1  UNL1       -0.4371
      3 O          18.7954   76.4110   -3.1491 O.2     1  UNL1       -0.5170
      4 O          17.3973   74.1701   -3.1059 O.3     1  UNL1       -0.3112
      5 C          18.3618   73.2010   -3.4780 C.3     1  UNL1        0.1811
      6 O          17.2262   71.3750   -4.5503 O.3     1  UNL1       -0.3308
      7 O          18.1209   69.7009   -2.2292 O.3     1  UNL1       -0.3794
      8 O          19.9060   69.0211   -4.1754 O.3     1  UNL1       -0.3779
      9 C          18.8032   70.7654   -2.8899 C.3     1  UNL1        0.1713
     10 C          19.3172   70.3041   -4.2377 C.3     1  UNL1        0.1895
     11 C          17.7689   71.8120   -3.2851 C.3     1  UNL1        0.1764
     12 C          18.0539   70.3272   -5.0814 C.3     1  UNL1        0.2383
     13 H          18.7610   69.0202   -1.9669 H       1  UNL1        0.2105
     14 H          20.7057   69.0584   -3.6278 H       1  UNL1        0.2106
     15 O          16.1555   70.0786   -7.1580 O.2     1  UNL1       -0.2464
     16 O          19.2025   71.4069  -10.3506 O.2     1  UNL1       -0.2670
     17 N          18.3240   70.6021   -6.4645 N.ar    1  UNL1       -0.2551
     18 N          17.6742   70.7404   -8.7459 N.ar    1  UNL1       -0.2743
     19 C          17.3010   70.4449   -7.4285 C.ar    1  UNL1        0.3323
     20 C          19.5913   71.0226   -6.8528 C.ar    1  UNL1        0.0869
     21 C          19.9314   71.2990   -8.1134 C.ar    1  UNL1        0.0795
     22 C          18.9208   71.1604   -9.1819 C.ar    1  UNL1        0.2626
     23 H          16.9779   70.6377   -9.4347 H       1  UNL1        0.1734
     24 O          18.5636   74.9339   -0.9933 O.3     1  UNL1       -0.2703
     25 P          20.0847   74.9886   -0.4489 P.3     1  UNL1        0.2208
     26 O          19.9741   74.3360    1.0274 O.co2   1  UNL1       -0.4371
     27 O          20.6991   76.3582   -0.4761 O.2     1  UNL1       -0.5170
     28 O          20.8719   73.8849   -1.3246 O.3     1  UNL1       -0.2858
     29 O          22.5139   73.0473    0.1649 O.3     1  UNL1       -0.3258
     30 O          23.3068   70.6535   -3.1049 O.3     1  UNL1       -0.3794
     31 O          22.0289   69.5215   -0.7954 O.3     1  UNL1       -0.3794
     32 O          22.6010   73.4345   -3.4886 O.3     1  UNL1       -0.3775
     33 C          22.4821   71.3995   -2.2056 C.3     1  UNL1        0.1715
     34 C          22.6429   70.8072   -0.8041 C.3     1  UNL1        0.1694
     35 C          22.9198   72.8629   -2.2244 C.3     1  UNL1        0.1967
     36 C          22.0024   71.7125    0.2567 C.3     1  UNL1        0.1761
     37 C          22.2617   73.6637   -1.0993 C.3     1  UNL1        0.2704
     38 H          23.0338   69.7234   -3.0981 H       1  UNL1        0.2105
     39 H          22.4422   68.9599   -1.4700 H       1  UNL1        0.2105
     40 H          23.0236   72.9188   -4.1923 H       1  UNL1        0.2106
     41 O          21.2971   71.7477    2.5393 O.3     1  UNL1       -0.3794
     42 C          22.2873   71.2221    1.6746 C.3     1  UNL1        0.1693
     43 H          21.4655   71.4436    3.4453 H       1  UNL1        0.2105
@<TRIPOS>UNITY_ATOM_ATTR
2 1
charge -1
26 1
charge -1
@<TRIPOS>BOND
     1    25    28    1
     2    25    24    1
     3    25    26    1
     4    25    27    2
     5     1     4    1
     6     1    24    1
     7     1     2    1
     8     1     3    2
     9     6    11    1
    10     6    12    1
    11    29    36    1
    12    29    37    1
    13     7     9    1
    14     7    13    1
    15     8    10    1
    16     8    14    1
    17    28    37    1
    18     4     5    1
    19    30    33    1
    20    30    38    1
    21    31    34    1
    22    31    39    1
    23    32    35    1
    24    32    40    1
    25    41    42    1
    26    41    43    1
    27    15    19    2
    28    16    22    2
    29    17    12    1
    30    17    19   ar
    31    17    20   ar
    32    18    19   ar
    33    18    22   ar
    34    18    23    1
    35     9    10    1
    36     9    11    1
    37    10    12    1
    38    11     5    1
    39    33    34    1
    40    33    35    1
    41    34    36    1
    42    35    37    1
    43    36    42    1
    44    20    21   ar
    45    21    22   ar
@<TRIPOS>MOLECULE
*****
 43 45 0 0 0
SMALL
GASTEIGER

@<TRIPOS>ATOM
      1 P          21.0709   70.6017   -2.4291 P.3     1  UNL1        0.2189
      2 O          20.7198   69.9611   -0.9856 O.co2   1  UNL1       -0.4371
      3 O          22.0539   69.8179   -3.2482 O.2     1  UNL1       -0.5170
      4 O          21.4987   72.1237   -2.0850 O.3     1  UNL1       -0.3112
      5 C          20.6724   72.8782   -1.2156 C.3     1  UNL1        0.1811
      6 O          21.0455   74.8133    0.1591 O.3     1  UNL1       -0.3308
      7 O          22.8401   75.7937   -2.0339 O.3     1  UNL1       -0.3794
      8 O          24.6136   74.8237   -0.2035 O.3     1  UNL1       -0.3779
      9 C          22.6323   74.4622   -1.5655 C.3     1  UNL1        0.1713
     10 C          23.3174   74.2618   -0.2298 C.3     1  UNL1        0.1895
     11 C          21.1618   74.3198   -1.1934 C.3     1  UNL1        0.1764
     12 C          22.3595   74.9566    0.7230 C.3     1  UNL1        0.2383
     13 H          23.7723   75.9087   -2.2780 H       1  UNL1        0.2105
     14 H          25.1853   74.3477   -0.8259 H       1  UNL1        0.2106
     15 O          22.5384   72.1841    1.2319 O.2     1  UNL1       -0.2464
     16 O          22.3921   72.8261    5.7934 O.2     1  UNL1       -0.2670
     17 N          22.3706   74.3716    2.0341 N.ar    1  UNL1       -0.2551
     18 N          22.4656   72.5060    3.5027 N.ar    1  UNL1       -0.2743
     19 C          22.4627   72.9678    2.1803 C.ar    1  UNL1        0.3323
     20 C          22.2912   75.1873    3.1575 C.ar    1  UNL1        0.0869
     21 C          22.2939   74.7312    4.4118 C.ar    1  UNL1        0.0795
     22 C          22.3873   73.2767    4.6520 C.ar    1  UNL1        0.2626
     23 H          22.5286   71.5314    3.6291 H       1  UNL1        0.1734
     24 O          19.6164   70.7787   -3.1117 O.3     1  UNL1       -0.2703
     25 P          18.6619   69.7153   -3.8674 P.3     1  UNL1        0.2208
     26 O          17.1875   70.0775   -3.3085 O.co2   1  UNL1       -0.4371
     27 O          19.0630   68.2817   -3.6728 O.2     1  UNL1       -0.5170
     28 O          18.6456   70.2023   -5.4061 O.3     1  UNL1       -0.2858
     29 O          19.6599   72.0408   -6.5051 O.3     1  UNL1       -0.3258
     30 O          16.0100   72.0496   -8.4361 O.3     1  UNL1       -0.3794
     31 O          18.3541   71.1633   -9.8388 O.3     1  UNL1       -0.3794
     32 O          16.1445   71.4593   -5.6054 O.3     1  UNL1       -0.3775
     33 C          17.1443   71.4582   -7.7967 C.3     1  UNL1        0.1715
     34 C          18.3959   71.8438   -8.5876 C.3     1  UNL1        0.1694
     35 C          17.2344   71.9750   -6.3621 C.3     1  UNL1        0.1967
     36 C          19.6722   71.4734   -7.8202 C.3     1  UNL1        0.1761
     37 C          18.5628   71.5931   -5.7065 C.3     1  UNL1        0.2704
     38 H          15.9467   71.7252   -9.3473 H       1  UNL1        0.2105
     39 H          17.5432   71.4056  -10.3131 H       1  UNL1        0.2105
     40 H          15.3095   71.7081   -6.0305 H       1  UNL1        0.2106
     41 O          21.8783   72.3433   -7.5282 O.3     1  UNL1       -0.3794
     42 C          20.9289   71.9900   -8.5172 C.3     1  UNL1        0.1693
     43 H          22.6836   72.6736   -7.9573 H       1  UNL1        0.2105
@<TRIPOS>UNITY_ATOM_ATTR
2 1
charge -1
26 1
charge -1
@<TRIPOS>BOND
     1    25    28    1
     2    25    24    1
     3    25    26    1
     4    25    27    2
     5     1     4    1
     6     1    24    1
     7     1     2    1
     8     1     3    2
     9     6    11    1
    10     6    12    1
    11    29    36    1
    12    29    37    1
    13     7     9    1
    14     7    13    1
    15     8    10    1
    16     8    14    1
    17    28    37    1
    18     4     5    1
    19    30    33    1
    20    30    38    1
    21    31    34    1
    22    31    39    1
    23    32    35    1
    24    32    40    1
    25    41    42    1
    26    41    43    1
    27    15    19    2
    28    16    22    2
    29    17    12    1
    30    17    19   ar
    31    17    20   ar
    32    18    19   ar
    33    18    22   ar
    34    18    23    1
    35     9    10    1
    36     9    11    1
    37    10    12    1
    38    11     5    1
    39    33    34    1
    40    33    35    1
    41    34    36    1
    42    35    37    1
    43    36    42    1
    44    20    21   ar
    45    21    22   ar
@<TRIPOS>MOLECULE
*****
 43 45 0 0 0
SMALL
GASTEIGER

@<TRIPOS>ATOM
      1 P          19.6100   69.5967   -2.6974 P.3     1  UNL1        0.2189
      2 O          21.0017   69.3654   -3.4892 O.co2   1  UNL1       -0.4371
      3 O          18.7198   68.3916   -2.6152 O.2     1  UNL1       -0.5170
      4 O          18.9673   70.8975   -3.4134 O.3     1  UNL1       -0.3112
      5 C          19.2876   71.1498   -4.7705 C.3     1  UNL1        0.1811
      6 O          18.6390   73.0737   -6.0556 O.3     1  UNL1       -0.3308
      7 O          16.1285   71.5653   -6.6982 O.3     1  UNL1       -0.3794
      8 O          17.6167   71.2332   -8.9591 O.3     1  UNL1       -0.3779
      9 C          17.4590   71.0760   -6.5380 C.3     1  UNL1        0.1713
     10 C          18.3024   71.4423   -7.7414 C.3     1  UNL1        0.1895
     11 C          18.1238   71.8795   -5.4272 C.3     1  UNL1        0.1764
     12 C          18.6003   72.9094   -7.4826 C.3     1  UNL1        0.2383
     13 H          15.6836   71.0670   -7.4023 H       1  UNL1        0.2105
     14 H          17.4505   70.2850   -9.0780 H       1  UNL1        0.2106
     15 O          20.5571   71.1320   -8.4776 O.2     1  UNL1       -0.2464
     16 O          23.4037   74.5879   -9.5705 O.2     1  UNL1       -0.2670
     17 N          19.8619   73.3175   -8.0333 N.ar    1  UNL1       -0.2551
     18 N          21.9728   72.8542   -9.0211 N.ar    1  UNL1       -0.2743
     19 C          20.7745   72.3451   -8.5046 C.ar    1  UNL1        0.3323
     20 C          20.1834   74.6687   -8.1022 C.ar    1  UNL1        0.0869
     21 C          21.3309   75.1378   -8.5965 C.ar    1  UNL1        0.0795
     22 C          22.3390   74.1879   -9.1100 C.ar    1  UNL1        0.2626
     23 H          22.6240   72.1953   -9.3550 H       1  UNL1        0.1734
     24 O          20.0967   70.1724   -1.2675 O.3     1  UNL1       -0.2703
     25 P          21.4427   70.9604   -0.8428 P.3     1  UNL1        0.2208
     26 O          21.4829   72.2077   -1.8724 O.co2   1  UNL1       -0.4371
     27 O          22.6809   70.1115   -0.8498 O.2     1  UNL1       -0.5170
     28 O          21.0941   71.6231    0.5870 O.3     1  UNL1       -0.2858
     29 O          21.3421   73.8962    1.2099 O.3     1  UNL1       -0.3258
     30 O          22.0586   72.1268    4.8714 O.3     1  UNL1       -0.3794
     31 O          19.5886   73.5243    4.4310 O.3     1  UNL1       -0.3794
     32 O          23.0609   70.8946    2.4514 O.3     1  UNL1       -0.3775
     33 C          21.4393   72.2643    3.5896 C.3     1  UNL1        0.1715
     34 C          20.7072   73.6072    3.5523 C.3     1  UNL1        0.1694
     35 C          22.5153   72.2082    2.5068 C.3     1  UNL1        0.1967
     36 C          20.2446   73.9466    2.1289 C.3     1  UNL1        0.1761
     37 C          21.9614   72.6104    1.1388 C.3     1  UNL1        0.2704
     38 H          21.3808   72.1610    5.5634 H       1  UNL1        0.2105
     39 H          19.8943   73.3090    5.3262 H       1  UNL1        0.2105
     40 H          23.4085   70.6519    3.3233 H       1  UNL1        0.2106
     41 O          18.3066   75.3000    2.4769 O.3     1  UNL1       -0.3794
     42 C          19.6522   75.3513    2.0398 C.3     1  UNL1        0.1693
     43 H          17.9167   76.1872    2.4259 H       1  UNL1        0.2105
@<TRIPOS>UNITY_ATOM_ATTR
2 1
charge -1
26 1
charge -1
@<TRIPOS>BOND
     1    25    28    1
     2    25    24    1
     3    25    26    1
     4    25    27    2
     5     1     4    1
     6     1    24    1
     7     1     2    1
     8     1     3    2
     9     6    11    1
    10     6    12    1
    11    29    36    1
    12    29    37    1
    13     7     9    1
    14     7    13    1
    15     8    10    1
    16     8    14    1
    17    28    37    1
    18     4     5    1
    19    30    33    1
    20    30    38    1
    21    31    34    1
    22    31    39    1
    23    32    35    1
    24    32    40    1
    25    41    42    1
    26    41    43    1
    27    15    19    2
    28    16    22    2
    29    17    12    1
    30    17    19   ar
    31    17    20   ar
    32    18    19   ar
    33    18    22   ar
    34    18    23    1
    35     9    10    1
    36     9    11    1
    37    10    12    1
    38    11     5    1
    39    33    34    1
    40    33    35    1
    41    34    36    1
    42    35    37    1
    43    36    42    1
    44    20    21   ar
    45    21    22   ar
